# ORCA input file
# SCF done       -259.468635314910          0.000659871524
! wb97x-d3 def2-SVP def2/J RIJCOSX Grid4 TightSCF
%maxcore 5000
%tddft
    Mode sTDA
    Ethresh 5.0
    maxcore 5000
end

%pal
  nprocs 6
  end
* xyz 1 2
   C       -2.07934        -0.54339         0.00934
   C       -2.25057        -0.49033         1.38659
   C       -3.29923        -0.02649        -0.71833
   C       -4.16843         0.36708         0.44052
   C       -3.52588         0.07789         1.64200
   C       -3.04752         1.18221        -1.60374
   C       -3.84065        -1.17328        -1.55800
   C       -5.40801         0.96117         0.64769
   C       -5.70142         1.10077         2.02093
   S       -4.42670         0.50078         3.05377
   C       -5.03341        -1.81438        -1.26466
   C       -5.47598        -2.85574        -2.06119
   C       -4.73599        -3.28736        -3.15270
   C       -3.53650        -2.64414        -3.43442
   C       -3.09208        -1.59977        -2.64849
   C       -1.86781         1.90840        -1.54740
   C       -1.69290         3.01236        -2.36311
   C       -2.69056         3.42237        -3.23642
   C       -3.87435         2.69569        -3.27657
   C       -4.05325         1.58780        -2.47230
   C       -8.87460         2.59008         1.08703
   C       -9.69143         2.97212         0.04792
   C      -10.99584         3.58371         0.19853
   C      -11.51044         3.85072        -1.14485
   C      -10.56259         3.41633        -2.08708
   C       -9.39481         2.84937        -1.38127
   O       -8.39893         2.38295        -1.90385
   C      -11.65877         3.87134         1.36518
   C      -12.93509         4.47012         1.42280
   N      -13.96941         4.95277         1.54655
   C      -11.18773         3.61892         2.67024
   N      -10.88264         3.44808         3.76512
   C      -12.69466         4.42212        -1.57914
   C      -12.91100         4.55081        -2.94747
   C      -11.96067         4.11592        -3.87666
   C      -10.77164         3.54113        -3.44454
  Cl      -14.37713         5.25941        -3.49394
  Cl      -12.26031         4.29154        -5.55863
   S       -6.68079         1.56144        -0.34324
   C       -7.60963         1.99796         1.09479
   C       -6.92984         1.68235         2.28826
   S       -1.19484        -1.21725         2.58901
   C        0.29201        -1.36273        -0.42536
   C       -0.87492        -0.99161        -0.45945
   C        8.45119        -4.26036         1.62733
   C        9.23721        -4.87797         0.68188
   C       10.57022        -5.39358         0.91776
   C       11.04266        -5.97439        -0.33939
   C       10.04060        -5.82189        -1.31271
   C        8.87951        -5.13008        -0.71601
   C       12.23331        -6.59653        -0.67527
   C       12.40183        -7.05592        -1.97770
   C       11.39767        -6.89954        -2.93839
   C       10.20184        -6.27530        -2.60510
   O        7.84764        -4.83682        -1.29189
   C       11.28935        -5.35887         2.08603
   C       12.59070        -5.88483         2.22960
   C       10.85798        -4.80371         3.30854
   N       10.58962        -4.37506         4.34065
   N       13.64825        -6.28793         2.42128
  Cl       11.63953        -7.47937        -4.53682
  Cl       13.87624        -7.82807        -2.40224
   C        1.51820        -1.66758         0.09837
   C        1.73459        -1.37670         1.43923
   S        0.70421        -0.39296         2.46815
   C        2.73257        -2.31357        -0.52885
   C        3.65127        -2.38675         0.65574
   C        3.03629        -1.83303         1.77574
   C        2.50414        -3.71262        -1.07399
   C        3.19951        -1.38916        -1.64212
   C        1.36867        -4.44752        -0.76901
   C        1.22122        -5.73254        -1.26057
   C        2.20394        -6.31402        -2.04956
   C        3.34202        -5.57254        -2.34284
   C        3.49296        -4.28660        -1.86326
   C        4.37412        -0.65856        -1.56131
   C        4.74266         0.17986        -2.59848
   C        3.94523         0.31841        -3.72566
   C        2.76609        -0.41396        -3.79572
   C        2.39565        -1.25834        -2.76818
   C        2.01928        -7.69214        -2.61593
   C        1.31999        -7.61922        -3.97499
   C        4.37162         1.19739        -4.86542
   C        5.20555         0.39864        -5.86940
   C        4.91612        -2.88124         0.95142
   C        5.25789        -2.67716         2.30517
   S        3.99487        -1.88054         3.21232
   S        6.17488        -3.67030         0.08348
   C        7.16667        -3.71799         1.54478
   C        6.51850        -3.13489         2.65221
   C       -2.47526         4.59034        -4.15487
   C       -1.84827         4.12294        -5.47016
   C       -5.24318        -4.38687        -4.04003
   C       -6.07018        -3.80471        -5.18834
   C       -7.45431         1.87094         3.67415
   C       -8.35783         0.70172         4.07661
   C        7.05869        -3.05502         4.04261
   C        6.82088        -4.36605         4.79736
   H       -5.62763        -1.50305        -0.41896
   H       -6.41211        -3.34117        -1.82538
   H       -2.94354        -2.96651        -4.27835
   H       -2.15943        -1.10597        -2.88217
   H       -1.07604         1.61656        -0.87247
   H       -0.76506         3.56432        -2.31370
   H       -4.66831         3.00040        -3.94234
   H       -4.97870         1.03311        -2.51961
   H       -9.26441         2.77513         2.07851
   H      -13.45102         4.76967        -0.89503
   H      -10.02980         3.20131        -4.14974
   H        8.88821        -4.17347         2.61262
   H       13.03079        -6.73573         0.03577
   H        9.41894        -6.14674        -3.33561
   H        0.59161        -4.02268        -0.14973
   H        0.32866        -6.29205        -1.01908
   H        4.12331        -6.00659        -2.94917
   H        4.38390        -3.72479        -2.10195
   H        5.01079        -0.74192        -0.69354
   H        5.66478         0.73834        -2.52516
   H        2.12979        -0.31934        -4.66403
   H        1.47747        -1.82433        -2.83788
   H        2.99073        -8.17519        -2.73652
   H        1.41806        -8.29666        -1.93391
   H        1.91011        -7.02847        -4.67206
   H        1.18753        -8.61596        -4.38905
   H        0.34278        -7.15235        -3.87271
   H        3.49215         1.60292        -5.36973
   H        4.96541         2.03226        -4.48805
   H        4.62577        -0.43145        -6.26685
   H        5.51641         1.03334        -6.69586
   H        6.09319        -0.00475        -5.38744
   H       -3.42961         5.07710        -4.36413
   H       -1.81511         5.31926        -3.68060
   H       -2.49839         3.40431        -5.96420
   H       -1.69109         4.96647        -6.13818
   H       -0.88950         3.64440        -5.28261
   H       -4.40209        -4.94891        -4.45110
   H       -5.86412        -5.07374        -3.46162
   H       -5.46381        -3.12792        -5.78617
   H       -6.44090        -4.59964        -5.83112
   H       -6.91930        -3.24808        -4.79833
   H       -6.60458         1.91609         4.35854
   H       -8.01136         2.80469         3.76115
   H       -7.80738        -0.23532         4.03280
   H       -8.71849         0.84852         5.09041
   H       -9.21648         0.63239         3.41315
   H        8.12617        -2.82995         4.03700
   H        6.54265        -2.24605         4.56399
   H        7.31949        -5.19379         4.29882
   H        7.21459        -4.28512         5.80634
   H        5.75684        -4.58421         4.85267
*
