# ORCA input file
# SCF done       -249.888678591656          0.000281136590
! wb97x-d3 def2-SVP def2/J RIJCOSX Grid4 TightSCF
%maxcore 5000
%tddft
    Mode sTDA
    Ethresh 5.0
    maxcore 5000
end

%pal
  nprocs 6
  end
* xyz 1 2
   C        4.09009         6.36204        -3.90745
   O        2.98969         6.09875        -3.45196
   C        4.39132         6.71921        -5.30852
   C        3.52162         6.82385        -6.37521
   C        4.05463         7.17366        -7.60572
   C        5.42200         7.40888        -7.74621
   C        6.29518         7.30382        -6.67257
   C        5.77076         6.95422        -5.43877
   C        6.40773         6.75854        -4.13352
   C        7.74848         6.89909        -3.88197
   C        8.37536         6.70787        -2.63268
   N        8.96354         6.56918        -1.65596
   C        8.70148         7.25974        -4.85801
   N        9.52549         7.54836        -5.60304
   C        5.36690         6.39248        -3.19918
   F        3.24890         7.28585        -8.66904
   F        5.90986         7.74431        -8.94567
   C      -13.33003         0.04111        -1.64448
   O      -12.26261         0.62555        -1.73323
   C      -14.25733        -0.25069        -2.75634
   C      -14.11753         0.05440        -4.09523
   C      -15.13401        -0.33657        -4.95226
   C      -16.25212        -1.01290        -4.46543
   C      -16.39202        -1.31776        -3.11867
   C      -15.38040        -0.93051        -2.25491
   C      -15.22213        -1.09813        -0.80766
   C      -16.13262        -1.70534         0.01882
   C      -15.99895        -1.86585         1.41406
   N      -15.96947        -2.03553         2.54966
   C      -17.35289        -2.25933        -0.42270
   N      -18.35862        -2.72760        -0.71706
   C      -13.95296        -0.50875        -0.44367
   F      -15.04020        -0.06303        -6.25947
   F      -17.21767        -1.38038        -5.31501
   C        5.53179         6.10859        -1.86111
   C        4.58770         5.72615        -0.91113
   C        4.91954         5.44277         0.41833
   C        3.84938         5.03748         1.24718
   C        2.63100         5.00770         0.54184
   S        2.86304         5.48541        -1.11638
   C        1.33369         4.64481         0.95783
   S        0.03900         4.69742        -0.23413
   C       -1.06835         4.12107         0.93491
   C       -0.47846         3.89100         2.17419
   C        0.87131         4.20614         2.19524
   C       -2.45294         3.78552         0.96190
   C       -2.74063         3.32342         2.26948
   C       -1.50873         3.39538         3.15827
   C       -3.41014         3.82577        -0.05091
   C       -4.66440         3.34402         0.23974
   C       -4.94836         2.86673         1.54343
   C       -3.99729         2.84785         2.56253
   C       -5.89029         3.25077        -0.65590
   C       -6.88954         2.64176         0.29502
   C       -6.30925         2.44338         1.54611
   C       -8.18678         2.16744         0.23172
   C       -8.61812         1.62949         1.44524
   S       -7.36792         1.71751         2.67288
   C       -9.87713         1.03605         1.65591
   S      -10.94420         0.84270         0.29010
   C      -12.17851         0.03755         1.24301
   C      -11.73686        -0.03972         2.56858
   C      -10.45955         0.50725         2.82040
   C      -13.39939        -0.47987         0.81818
   C       -1.19062         1.98364         3.68847
   C        0.04763         1.88215         4.56924
   C       -1.64941         4.46294         4.26574
   C       -2.69874         4.17688         5.33125
   C       -6.29319         4.67624        -1.08406
   C       -7.57041         4.76199        -1.90878
   C       -5.70607         2.27064        -1.83416
   C       -4.71907         2.69313        -2.91420
   S        6.44039         5.48858         1.23010
   C        5.67533         4.95929         2.70368
   C        4.32823         4.76695         2.55648
   F        3.55682         4.36229         3.56334
   C        6.49358         4.76454         3.90684
   O        7.76102         5.10383         3.64549
   O        6.08390         4.36704         4.96661
   C        8.71104         4.93872         4.69818
   C        9.23960         3.51260         4.74386
   C      -10.12882         0.37315         4.19494
   C      -11.09980        -0.24760         4.93370
   S      -12.48489        -0.70095         3.97476
   F       -8.99135         0.81127         4.72688
   C      -11.09312        -0.55086         6.36973
   O      -10.20274        -0.27675         7.13178
   O      -12.22214        -1.18994         6.69839
   C      -12.39429        -1.54157         8.07125
   C      -12.94022        -0.37243         8.87762
   H        2.46523         6.64042        -6.26135
   H        7.34270         7.49596        -6.83599
   H      -13.25079         0.57688        -4.46717
   H      -17.27589        -1.84240        -2.79555
   H        6.53496         6.17370        -1.45633
   H        1.49833         4.13029         3.06000
   H       -3.14638         4.22040        -1.01898
   H       -4.26111         2.45608         3.53207
   H       -8.82471         2.17730        -0.63365
   H      -13.96749        -0.93185         1.62272
   H       -2.05751         1.62551         4.24514
   H       -1.06716         1.32749         2.82254
   H       -0.04224         2.50372         5.45537
   H        0.17332         0.85136         4.89307
   H        0.94194         2.17382         4.02704
   H       -0.67424         4.57871         4.74094
   H       -1.88992         5.41223         3.77935
   H       -2.51749         3.22585         5.82389
   H       -2.66247         4.95883         6.08661
   H       -3.69783         4.16986         4.90501
   H       -6.41678         5.27041        -0.17461
   H       -5.46632         5.11233        -1.64595
   H       -8.42090         4.38340        -1.34895
   H       -7.76789         5.80175        -2.15996
   H       -7.48312         4.20221        -2.83561
   H       -5.38450         1.31245        -1.41740
   H       -6.68606         2.11422        -2.28778
   H       -3.70418         2.72473        -2.52933
   H       -4.74587         1.96682        -3.72368
   H       -4.97194         3.66540        -3.32765
   H        9.50850         5.64867         4.47125
   H        8.23377         5.19913         5.64862
   H        9.66634         3.24003         3.78152
   H       10.00693         3.43392         5.50830
   H        8.43297         2.82349         4.98289
   H      -13.09650        -2.37722         8.06054
   H      -11.42966        -1.86516         8.47609
   H      -13.87595        -0.02369         8.44732
   H      -13.11554        -0.68842         9.90173
   H      -12.22332         0.44523         8.87982
*
