# ORCA input file
# SCF done       -232.999225691898          0.000872500763
! wb97x-d3 def2-SVP def2/J RIJCOSX Grid4 TightSCF
%maxcore 5000
%tddft
    Mode sTDA
    Ethresh 5.0
    maxcore 5000
end

%pal
  nprocs 6
  end
* xyz 1 2
   C       -3.85460         3.61718         4.17479
   O       -4.76601         2.90429         3.78301
   C       -3.41485         3.78275         5.57011
   C       -3.91449         3.19094         6.71318
   C       -3.32278         3.50999         7.92756
   C       -2.26011         4.39970         7.97834
   C       -1.75540         4.99685         6.82940
   C       -2.33788         4.68612         5.61144
   C       -2.04585         5.13493         4.24814
   C       -1.05517         6.01719         3.90266
   C       -0.76454         6.45912         2.59466
   N       -0.45905         6.86491         1.56460
   C       -0.17073         6.61537         4.82478
   N        0.57757         7.14187         5.51845
   C       -2.98406         4.47245         3.36659
   C      -16.56370        -8.95446        -1.68309
   O      -15.83189        -7.98468        -1.56163
   C      -17.17161        -9.73527        -0.59243
   C      -17.05425        -9.55780         0.77171
   C      -17.73095       -10.43658         1.60652
   C      -18.50031       -11.45996         1.07335
   C      -18.62037       -11.64067        -0.29938
   C      -17.94940       -10.77001        -1.14262
   C      -17.87163       -10.69405        -2.60325
   C      -18.50373       -11.54369        -3.47443
   C      -18.43528       -11.47984        -4.88184
   N      -18.43393       -11.49553        -6.03053
   C      -19.32599       -12.61865        -3.07621
   N      -20.00319       -13.51111        -2.82465
   C      -17.01419        -9.57516        -2.93001
   C       -3.05730         4.60716         2.00014
   C       -3.91646         3.98894         1.09017
   C       -3.85912         4.21277        -0.28820
   C       -4.79044         3.48567        -1.06506
   C       -5.60758         2.66619        -0.27002
   S       -5.19059         2.82968         1.41567
   C       -6.63793         1.77053        -0.61895
   S       -7.16079         1.48066        -2.26736
   C       -8.29474         0.33026        -1.70926
   C       -8.27228         0.16328        -0.32725
   C       -7.35117         0.99045         0.29083
   C       -9.25956        -0.53116        -2.30818
   C       -9.86041        -1.27189        -1.26062
   C       -9.30568        -0.85220         0.09226
   C       -9.59655        -0.72066        -3.64748
   C      -10.52726        -1.69000        -3.93264
   C      -11.09529        -2.46408        -2.89207
   C      -10.76971        -2.26239        -1.55241
   C      -11.06109        -2.12024        -5.28477
   C      -11.96567        -3.25387        -4.89031
   C      -11.96500        -3.41289        -3.50885
   C      -12.76859        -4.17181        -5.54825
   C      -13.39209        -5.05070        -4.66880
   S      -12.96820        -4.70074        -2.99501
   C      -14.26346        -6.13168        -4.91863
   S      -14.97010        -6.95913        -3.55876
   C      -15.83313        -8.09750        -4.57387
   C      -15.55326        -7.80180        -5.91038
   C      -14.68042        -6.71151        -6.13032
   C      -16.66327        -9.15183        -4.18969
   C       -8.68323        -2.08030         0.78330
   C       -8.03217        -1.80631         2.13251
   C      -10.36007        -0.11806         0.94936
   C      -11.53420        -0.96437         1.42227
   C      -11.84863        -0.98249        -5.96303
   C      -12.98977        -0.45231        -5.10341
   C       -9.93349        -2.59619        -6.21894
   C       -9.09685        -3.71875        -5.61738
   S       -2.82699         5.22622        -1.22972
   C       -3.62129         4.68809        -2.68760
   C       -4.62180         3.78711        -2.44178
   F       -5.36310         3.25160        -3.41211
   C       -3.13595         5.24120        -3.95736
   O       -3.77424         4.72076        -5.00712
   O       -2.25108         6.05895        -4.01888
   C       -3.38299         5.19770        -6.29503
   C       -4.06747         6.51408        -6.63287
   C      -14.46276        -6.53951        -7.52272
   C      -15.13310        -7.44180        -8.30383
   S      -16.08032        -8.56563        -7.36580
   F      -13.67731        -5.59881        -8.04388
   C      -15.12651        -7.55167        -9.76616
   O      -14.53081        -6.81983       -10.51436
   O      -15.87325        -8.59708       -10.14277
   C      -15.99640        -8.83614       -11.54408
   C      -17.08075        -7.96466       -12.16070
   H       -4.74243         2.50174         6.64865
   H       -3.69092         3.06357         8.83897
   H       -1.81084         4.63700         8.93098
   H       -0.92880         5.68408         6.90240
   H      -16.44927        -8.75435         1.16305
   H      -17.65832       -10.32430         2.67778
   H      -19.02013       -12.13497         1.73661
   H      -19.22600       -12.44537        -0.68248
   H       -2.35462         5.28022         1.52277
   H       -7.17018         1.06181         1.34801
   H       -9.12309        -0.13061        -4.41727
   H      -11.21453        -2.88600        -0.79316
   H      -12.89866        -4.20364        -6.61126
   H      -17.06759        -9.69735        -5.03448
   H       -9.46128        -2.83482         0.90588
   H       -7.93330        -2.49478         0.10417
   H       -8.74818        -1.40665         2.84513
   H       -7.63794        -2.73626         2.53656
   H       -7.20737        -1.10687         2.03397
   H       -9.84901         0.30746         1.81440
   H      -10.74351         0.71611         0.35555
   H      -11.20024        -1.81901         2.00409
   H      -12.18006        -0.35860         2.05432
   H      -12.12435        -1.31768         0.58153
   H      -11.15652        -0.16893        -6.18810
   H      -12.24853        -1.35598        -6.90758
   H      -12.61331        -0.06207        -4.16028
   H      -13.50679         0.34910        -5.62546
   H      -13.70886        -1.23908        -4.88718
   H      -10.38179        -2.93894        -7.15332
   H       -9.28876        -1.74553        -6.44722
   H       -9.71258        -4.59123        -5.41155
   H       -8.31264        -4.01015        -6.31163
   H       -8.63224        -3.39832        -4.68728
   H       -2.29503         5.32134        -6.31106
   H       -3.68135         4.40742        -6.98653
   H       -3.73882         7.29103        -5.94690
   H       -3.80941         6.80778        -7.64619
   H       -5.14681         6.40580        -6.55665
   H      -15.03135        -8.63768       -12.02232
   H      -16.24555        -9.89570       -11.62700
   H      -16.80866        -6.91536       -12.07379
   H      -17.19196        -8.21284       -13.21211
   H      -18.02835        -8.12931       -11.65334
*
