# ORCA input file
# SCF done       -239.671656579350          0.000718346880
! wb97x-d3 def2-SVP def2/J RIJCOSX Grid4 TightSCF
%maxcore 5000
%tddft
    Mode sTDA
    Ethresh 5.0
    maxcore 5000
end

%pal
  nprocs 6
  end
* xyz 1 2
   C        4.61484        -1.62011        -2.78069
   O        3.82562        -1.21926        -3.61689
   C        5.03729        -3.01309        -2.57031
   C        4.62955        -4.15881        -3.21502
   C        5.15406        -5.39868        -2.84174
   C        6.11064        -5.45441        -1.79572
   C        6.51465        -4.28423        -1.15787
   C        5.98475        -3.06133        -1.53642
   C        6.22021        -1.71343        -1.04009
   C        7.12629        -1.37300        -0.06591
   C        7.38693        -0.07095         0.40646
   N        7.66665         0.95316         0.84679
   C        7.94708        -2.30684         0.59767
   N        8.63731        -3.02456         1.17098
   C        5.33899        -0.82438        -1.77639
   C        5.16364         0.51034        -1.52602
   C        4.30485         1.44604        -2.12645
   C        4.18999         2.75022        -1.64133
   C        3.25312         3.48808        -2.33851
   C        2.64732         2.77033        -3.39158
   S        3.23795         1.15726        -3.49570
   C        1.68633         3.53295        -4.05317
   C        0.69594         3.33477        -5.16855
   C        1.34220         3.20035        -6.53614
   C        0.61732         2.66442        -7.59301
   C        1.17640         2.57686        -8.85327
   C        2.47032         3.02151        -9.09285
   C        3.05933         2.96432       -10.47281
   C        2.72947         4.24189       -11.24752
   C        3.18652         3.56422        -8.03515
   C        2.63060         3.65705        -6.77240
   C       -0.15168         2.12275        -4.82886
   C       -1.39718         2.23847        -4.23017
   C       -2.11593         1.10587        -3.89056
   C       -1.60328        -0.16283        -4.12178
   C       -2.40553        -1.38943        -3.79547
   C       -3.23102        -1.82283        -5.00883
   C       -0.34773        -0.27148        -4.70684
   C        0.37030         0.85467        -5.05659
   C       -0.04818         4.65814        -5.12756
   C        0.49344         5.51346        -4.13788
   C        1.54920         4.79373        -3.49771
   S        2.62120         5.10569        -2.17337
   C       -0.03065         6.77980        -3.89092
   C       -1.12290         7.16357        -4.63320
   C       -1.92103         8.45225        -4.53519
   C       -2.63741         8.64184        -3.20967
   C       -2.79929         7.60430        -2.30403
   C       -3.50195         7.80658        -1.12915
   C       -4.07225         9.03798        -0.83969
   C       -4.79223         9.27025         0.45734
   C       -3.83240         9.84100         1.50321
   C       -3.92058        10.06845        -1.75950
   C       -3.21390         9.87548        -2.92965
   C       -1.00033         9.61840        -4.84361
   C       -0.85577        10.09843        -6.13704
   C        0.01413        11.13934        -6.40514
   C        0.76879        11.71781        -5.39419
   C        1.67556        12.88014        -5.67872
   C        0.92278        14.20010        -5.49869
   C        0.62823        11.22580        -4.10283
   C       -0.24188        10.18839        -3.82895
   C       -2.97134         8.21602        -5.58722
   C       -2.78474         6.98436        -6.19275
   C       -1.65323         6.31484        -5.63422
   C       -1.11206         5.05966        -5.90021
   S       -3.97598         6.59022        -7.38563
   C       -4.77046         8.10752        -7.05338
   C       -4.10870         8.86546        -6.06204
   S       -4.92895        10.33987        -5.72455
   C       -6.16641         9.93905        -6.91201
   C       -5.91470         8.71159        -7.53197
   C       -7.30321        10.69741        -7.22443
   C       -7.76062        11.87920        -6.69902
   C       -8.98631        12.55478        -7.07762
   C       -9.87495        12.18853        -8.05548
   C      -11.05632        12.89723        -8.36004
   N      -12.03427        13.41664        -8.66302
   C       -9.75668        11.06993        -8.90676
   N       -9.74132        10.18883        -9.64419
   C       -9.11909        13.73333        -6.21994
   C      -10.10003        14.70893        -6.13957
   C       -9.94909        15.72627        -5.20573
   C       -8.84734        15.78214        -4.36484
   C       -7.85884        14.81049        -4.43621
   C       -8.00724        13.79715        -5.36207
   C       -7.11496        12.65501        -5.63218
   O       -6.05935        12.41770        -5.07239
   O        4.66033        -6.43411        -3.55511
   O        6.60417        -6.67615        -1.44997
   C        7.54666        -6.76841        -0.40455
   C        5.05001        -7.77238        -3.32977
   H        3.90295        -4.12264        -4.01058
   H        7.23918        -4.33638        -0.36509
   H        5.74408         0.93392        -0.71497
   H        4.76370         3.11270        -0.80734
   H       -0.38552         2.29945        -7.42485
   H        0.60027         2.15218        -9.66310
   H        4.14344         2.85238       -10.40851
   H        2.65806         2.10351       -11.01137
   H        3.13293         5.11104       -10.73271
   H        3.15454         4.20159       -12.24773
   H        1.65209         4.36541       -11.33208
   H        4.19472         3.91737        -8.19896
   H        3.20915         4.08557        -5.96703
   H       -1.81365         3.21475        -4.02849
   H       -3.08886         1.21319        -3.43187
   H       -1.73631        -2.20226        -3.50670
   H       -3.07596        -1.18351        -2.95860
   H       -2.57777        -2.05005        -5.84826
   H       -3.81742        -2.70833        -4.77478
   H       -3.90869        -1.02653        -5.30886
   H        0.07855        -1.24758        -4.88541
   H        1.34316         0.74864        -5.51310
   H        0.39412         7.41457        -3.12882
   H       -2.37440         6.63268        -2.51023
   H       -3.61212         6.98948        -0.43018
   H       -5.61425         9.97211         0.30290
   H       -5.20871         8.33050         0.82515
   H       -3.41602        10.78474         1.15853
   H       -4.35072        10.01231         2.44383
   H       -3.01148         9.14945         1.67952
   H       -4.36555        11.03270        -1.56213
   H       -3.10561        10.68989        -3.63055
   H       -1.42639         9.66099        -6.94334
   H        0.10900        11.50508        -7.41770
   H        2.53042        12.85799        -4.99967
   H        2.05009        12.81600        -6.70235
   H        0.55551        14.29001        -4.47884
   H        1.57676        15.04334        -5.70867
   H        0.07055        14.24415        -6.17316
   H        1.20856        11.65993        -3.30108
   H       -0.34369         9.82710        -2.81587
   H       -1.53460         4.42660        -6.66496
   H       -6.56111         8.29911        -8.28571
   H       -7.91127        10.24236        -7.99705
   H      -10.96772        14.69297        -6.77819
   H      -10.70978        16.48932        -5.13660
   H       -8.75983        16.58729        -3.65087
   H       -6.99275        14.83293        -3.79267
   H        8.46208        -6.21658        -0.63552
   H        7.13436        -6.41044         0.54304
   H        7.77600        -7.82948        -0.32060
   H        6.11698        -7.91824        -3.50631
   H        4.80064        -8.10118        -2.31940
   H        4.47876        -8.35429        -4.05276
*
