# ORCA input file
# SCF done       -282.835952310153          0.000437910894
! wb97x-d3 def2-SVP def2/J RIJCOSX Grid4 TightSCF
%maxcore 5000
%tddft
    Mode sTDA
    Ethresh 5.0
    maxcore 5000
end

%pal
  nprocs 6
  end
* xyz 1 2
   C        2.58285        -1.87626        -0.43827
   C        2.68334        -1.19865         0.80228
   C        1.82987        -0.14989         1.13598
   C        0.85634         0.18344         0.22458
   C        0.71564        -0.53583        -0.98739
   C        1.59029        -1.56247        -1.33618
   C        3.63945        -2.96215        -0.55052
   C        4.29551        -2.85743         0.80145
   C        3.75216        -1.80758         1.52933
   C        5.38227        -3.45131         1.42645
   C        5.66756        -2.85986         2.64622
   S        4.53656        -1.58174         3.03955
   C       -0.20589         1.26377         0.34180
   C       -1.02360         0.98956        -0.89346
   C       -0.44401        -0.02368        -1.64636
   C       -2.20407         1.47026        -1.44031
   C       -2.54571         0.80676        -2.60999
   S       -1.33287        -0.37353        -3.07031
   C        6.74155        -3.17957         3.52829
   C       -3.72053         0.96013        -3.40260
   C       -0.97878         1.08562         1.63371
   C        0.35543         2.67009         0.21096
   C        2.96234        -4.28343        -0.83812
   C        4.76040        -2.65718        -1.53131
   C        7.97628        -3.68071         3.07856
   C        8.97203        -4.10966         4.00048
   C        8.81875        -4.08027         5.38479
   C        7.64022        -3.44412         5.84315
   C        6.62313        -2.99750         4.92530
   C       -4.95693         1.40620        -2.89777
   C       -6.06298         1.62795        -3.76643
   C       -6.03669         1.42252        -5.14461
   C       -4.84318         0.84318        -5.63735
   C       -3.70932         0.62054        -4.77727
   N        7.33582        -3.13732         7.10263
   S        5.90258        -2.41522         7.13153
   N        5.59998        -2.42292         5.55709
   N       -4.62308         0.39177        -6.87048
   S       -3.13164        -0.19464        -6.95342
   N       -2.69370         0.05824        -5.43149
   C        9.82533        -4.58471         6.26956
   C        9.59328        -5.16202         7.47092
   C       -7.17884         1.68352        -5.96541
   C       -7.15091         2.06130        -7.26464
   C       -6.00614         2.57020        -8.02527
   N       -6.37255         2.77235        -9.34813
   C       -7.66825         2.56196        -9.68271
   S       -8.59125         2.08427        -8.26330
   C        8.31439        -5.65770         7.98975
   N        8.48375        -6.13876         9.27932
   C        9.73774        -6.13999         9.79266
   S       10.87939        -5.51981         8.60646
   C        7.33784        -6.60016        10.03768
   O        7.26120        -5.73623         7.39813
   S       10.15543        -6.65828        11.28173
   C        2.70629        -4.66245        -2.14976
   C        2.03945        -5.84207        -2.41985
   C        1.60720        -6.66882        -1.39075
   C        1.86343        -6.28316        -0.08187
   C        2.52777        -5.10236         0.19421
   C        4.97753        -1.38376        -2.03295
   C        6.10196        -1.11674        -2.79621
   C        7.03695        -2.10588        -3.06406
   C        6.80562        -3.38550        -2.57169
   C        5.68348        -3.65816        -1.81685
   C       -0.51427         1.66194         2.80923
   C       -1.20554         1.49364         3.99416
   C       -2.37418         0.74493         4.03849
   C       -2.82430         0.15560         2.86482
   C       -2.13286         0.31569         1.67889
   C       -0.46045         3.75596         0.50610
   C        0.00453         5.04699         0.34893
   C        1.29087         5.29010        -0.11626
   C        2.09785         4.20236        -0.41841
   C        1.63719         2.90719        -0.26323
   O       -4.91219         2.86517        -7.59938
   C       -5.37773         3.17130       -10.32363
   S       -8.30773         2.74132       -11.17262
   C       -3.16630         0.62078         5.30733
   C        1.81126         6.69287        -0.24210
   C        8.30423        -1.80521        -3.80962
   C        0.92429        -7.97245        -1.68879
   C        1.95398        -9.09591        -1.82548
   C        9.46550        -1.63223        -2.82762
   C       -4.24086         1.70874         5.36700
   C        2.47408         7.13578         1.06394
   C       -4.80202         1.95406       -11.03655
   C        6.77298        -5.47952        10.90150
   C        8.43691        -3.78810         1.73928
   C        9.68919        -4.30789         1.63907
   S       10.38729        -4.71020         3.18489
   C       10.42859        -4.51717         0.39473
   O        9.96554        -4.31256        -0.70327
   O       11.66415        -4.96808         0.62803
   C       12.49697        -5.18818        -0.51008
   C       13.12013        -3.88962        -1.00269
   C       -5.32127         1.63591        -1.54410
   C       -6.60586         2.05422        -1.39153
   S       -7.45803         2.20598        -2.90283
   C       -7.26969         2.35525        -0.12235
   O       -8.53925         2.72647        -0.31906
   O       -6.73452         2.26627         0.95681
   C       -9.30151         3.07361         0.83611
   C       -9.05738         4.51849         1.24693
   H        1.93077         0.36510         2.07866
   H        1.47749        -2.09034        -2.27043
   H        5.91354        -4.30504         1.04988
   H       -2.77253         2.28717        -1.03734
   H       10.85100        -4.48677         5.93339
   H       -8.14442         1.55249        -5.49037
   H        6.59639        -6.93082         9.30631
   H        7.65519        -7.44117        10.65818
   H        3.04177        -4.03504        -2.96319
   H        1.84889        -6.12393        -3.44573
   H        1.53468        -6.91207         0.73333
   H        2.71031        -4.81630         1.22012
   H        4.27304        -0.59239        -1.82103
   H        6.25844        -0.11692        -3.17634
   H        7.52430        -4.16797        -2.76466
   H        5.51959        -4.65704        -1.43842
   H        0.38513         2.26087         2.79376
   H       -0.83253         1.95458         4.89789
   H       -3.72941        -0.43435         2.87725
   H       -2.49950        -0.16073         0.78119
   H       -1.46277         3.58692         0.87222
   H       -0.64255         5.87935         0.58666
   H        3.10082         4.36840        -0.78542
   H        2.28377         2.07860        -0.51213
   H       -5.85153         3.84749       -11.03870
   H       -4.59596         3.69669        -9.76981
   H       -3.64489        -0.35978         5.35017
   H       -2.50480         0.71709         6.17074
   H        2.54172         6.74561        -1.05196
   H        0.99012         7.37287        -0.47744
   H        8.53414        -2.62684        -4.49125
   H        8.18478        -0.89369        -4.39913
   H        0.22820        -8.21833        -0.88429
   H        0.35728        -7.88922        -2.61820
   H        2.52120        -9.20293        -0.90351
   H        1.46082       -10.04071        -2.04183
   H        2.65035        -8.87448        -2.63130
   H        9.59237        -2.53286        -2.23136
   H       10.38990        -1.43247        -3.36558
   H        9.26904        -0.79976        -2.15458
   H       -4.90686         1.63003         4.51077
   H       -4.82886         1.61395         6.27701
   H       -3.78079         2.69438         5.35140
   H        3.30579         6.47843         1.30769
   H        2.84911         8.15269         0.97510
   H        1.75847         7.09929         1.88237
   H       -5.58353         1.43651       -11.58778
   H       -4.03261         2.26957       -11.73503
   H       -4.36408         1.26945       -10.31340
   H        6.49003        -4.63341        10.27911
   H        5.89549        -5.83546        11.43326
   H        7.51393        -5.15443        11.62792
   H        7.89551        -3.45096         0.87456
   H       13.26060        -5.88946        -0.16792
   H       11.89620        -5.64501        -1.30398
   H       13.67819        -3.41251        -0.20032
   H       13.79379        -4.10032        -1.82817
   H       12.34288        -3.21062        -1.34632
   H       -4.68707         1.45687        -0.69632
   H      -10.34196         2.91552         0.54574
   H       -9.03221         2.39624         1.65340
   H       -9.27599         5.18677         0.41745
   H       -9.69843         4.77131         2.08639
   H       -8.01961         4.64976         1.54405
*
