# ORCA input file
# SCF done       -177.336580652783          0.000788901696
! wb97x-d3 def2-SVP def2/J RIJCOSX Grid4 TightSCF
%maxcore 5000
%tddft
    Mode sTDA
    Ethresh 5.0
    maxcore 5000
end

%pal
  nprocs 6
  end
* xyz 1 2
   C        1.44545         2.03626         0.77911
   C        1.09668         3.09098         1.58670
   C        1.59387         4.44402         1.48682
   C        0.81665         5.27128         2.41045
   C       -0.12123         4.45616         3.06471
   C       -0.00654         3.06454         2.56602
   O       -0.75157         2.14656         2.83416
   C        2.65552         4.87456         0.73380
   C        3.10614         6.21033         0.69247
   N        3.51657         7.27968         0.61609
   C        3.45494         4.04606        -0.08177
   N        4.16304         3.43497        -0.74785
   C        0.88200         6.62412         2.70482
   C        0.00437         7.12700         3.65403
   C       -0.92397         6.31004         4.29850
   C       -0.99952         4.95805         4.00373
   F        0.05147         8.43064         3.95417
   F       -1.75095         6.83664         5.21146
   C        1.15872         0.68266         1.00981
   S        1.06221        -0.41746        -0.34593
   C        0.71545        -1.74246         0.70603
   C        0.73667        -1.37047         2.03389
   C        0.99735        -0.00660         2.22733
   O        1.18365         0.63082         3.38115
   C        1.09093        -0.09233         4.59857
   C        2.35269        -0.89674         4.89135
   C        0.50330        -3.05043         0.19470
   C        0.42943        -3.42242        -1.13169
   C        0.31580        -4.83664        -1.33057
   C        0.30205        -5.53319        -0.13298
   S        0.37783        -4.42822         1.23056
   O        0.53285        -2.51869        -2.14343
   O        0.22670        -5.23527        -2.60953
   C       -0.68158        -1.91757        -2.59580
   C       -1.61471        -2.88648        -3.30691
   C       -0.22584        -6.51908        -2.99700
   C       -1.62866        -6.85475        -2.50746
   C        0.27719        -6.91711         0.24097
   S        1.17347        -8.16971        -0.55954
   C        0.62650        -9.38390         0.58446
   C       -0.10256        -8.77582         1.61841
   C       -0.29919        -7.40006         1.39196
   O       -0.52967        -9.27235         2.78083
   C        0.03226       -10.42380         3.38059
   C        1.54179       -10.33787         3.57197
   C        0.92620       -10.72488         0.29495
   C        0.10973       -11.79349         0.57942
   C        0.44220       -13.19172         0.45463
   C       -0.80901       -13.94598         0.47495
   C       -1.87274       -13.04933         0.67526
   C       -1.35124       -11.66429         0.77008
   O       -2.00285       -10.64812         0.88006
   C        1.70965       -13.71337         0.44583
   C        1.99808       -15.08946         0.34703
   N        2.28057       -16.19814         0.26009
   C        2.86852       -12.92284         0.59525
   N        3.83299       -12.32174         0.75745
   C       -1.05881       -15.30264         0.34586
   C       -2.37619       -15.73023         0.42319
   C       -3.42634       -14.83385         0.62428
   C       -3.18368       -13.47499         0.74982
   F       -2.64246       -17.03474         0.29884
   F       -4.68198       -15.29093         0.69667
   H        1.96076         2.24796        -0.15009
   H        1.57627         7.29780         2.23007
   H       -1.71938         4.32450         4.49685
   H        0.55737        -2.08538         2.81652
   H        0.95331         0.68053         5.35886
   H        0.20377        -0.73413         4.59084
   H        3.21582        -0.23626         4.91278
   H        2.25713        -1.38212         5.85829
   H        2.51933        -1.65642         4.13151
   H       -1.20205        -1.44631        -1.75141
   H       -0.34235        -1.13852        -3.28086
   H       -2.02943        -3.60616        -2.60459
   H       -2.43263        -2.33078        -3.75768
   H       -1.07465        -3.42150        -4.08293
   H       -0.21564        -6.46637        -4.08914
   H        0.48784        -7.28857        -2.68372
   H       -2.33469        -6.09613        -2.83688
   H       -1.92849        -7.81315        -2.92088
   H       -1.66811        -6.92242        -1.42285
   H       -0.86544        -6.78844         2.07041
   H       -0.46886       -10.46658         4.35154
   H       -0.22553       -11.33208         2.82027
   H        1.86611       -11.15370         4.21133
   H        2.07359       -10.41462         2.62627
   H        1.80363        -9.39471         4.04583
   H        1.82294       -10.89816        -0.28884
   H       -0.28038       -16.03025         0.18335
   H       -3.99398       -12.78043         0.90399
*
