# ORCA input file
# SCF done       -177.338422515740          0.000584178699
! wb97x-d3 def2-SVP def2/J RIJCOSX Grid4 TightSCF
%maxcore 5000
%tddft
    Mode sTDA
    Ethresh 5.0
    maxcore 5000
end

%pal
  nprocs 6
  end
* xyz 1 2
   C        1.23232         2.77740         1.01811
   C        2.28355         2.33098         1.77363
   C        3.22536         1.25225         1.60975
   C        3.86353         1.03008         2.90933
   C        3.49406         2.07283         3.77712
   C        2.54542         2.97609         3.08464
   O        2.05514         3.99751         3.50582
   C        3.64927         0.70336         0.42496
   C        4.60381        -0.32872         0.32895
   N        5.34322        -1.19616         0.19255
   C        3.23566         1.16431        -0.84029
   N        2.96439         1.52858        -1.89480
   C        4.73077         0.04058         3.34185
   C        5.21088         0.12005         4.64120
   C        4.84817         1.16359         5.49309
   C        3.98056         2.15695         5.06625
   F        6.03960        -0.83143         5.08412
   F        5.34126         1.20432         6.73627
   C        0.54130         2.14159        -0.02647
   S       -0.49443         3.09754        -1.05721
   C       -0.92921         1.71238        -1.98169
   C       -0.34289         0.54675        -1.46513
   C        0.48748         0.79725        -0.37748
   C       -1.78584         1.75998        -3.09965
   C       -2.30663         2.90803        -3.69136
   C       -3.21862         2.62259        -4.73244
   C       -3.34846         1.24792        -4.94317
   S       -2.34119         0.32018        -3.87341
   O       -1.91804         4.15126        -3.26395
   O       -3.89447         3.45614        -5.54832
   C       -0.70480         4.62569        -3.85850
   C       -0.40330         5.99102        -3.27017
   C       -3.94188         4.85423        -5.29885
   C       -4.73325         5.22596        -4.05163
   C       -4.08248         0.62217        -5.99472
   S       -3.35232        -0.66163        -6.89640
   C       -4.67729        -0.68954        -8.04744
   C       -5.64642         0.22589        -7.68127
   C       -5.33848         0.94614        -6.52146
   C       -4.57151        -1.62522        -9.09224
   C       -5.32677        -1.81580       -10.22067
   C       -5.04439        -2.84410       -11.20891
   C       -5.88844        -2.58478       -12.37478
   C       -6.73097        -1.50054       -12.08541
   C       -6.45299        -0.99790       -10.72042
   O       -7.05197        -0.09872       -10.17177
   C       -4.19676        -3.91283       -11.08068
   C       -3.98416        -4.87573       -12.09124
   N       -3.76562        -5.69026       -12.86954
   C       -3.44333        -4.24667        -9.93412
   N       -2.81297        -4.60912        -9.04523
   C       -5.96551        -3.20645       -13.61191
   C       -6.88990        -2.72422       -14.52635
   C       -7.72828        -1.64998       -14.22597
   C       -7.65605        -1.02335       -12.99276
   F       -6.97538        -3.30615       -15.72782
   F       -8.60762        -1.22010       -15.13895
   O       -0.63181        -0.61957        -2.06158
   C        0.11297        -1.77234        -1.69313
   C       -0.29212        -2.89581        -2.63088
   O       -6.23850         1.79922        -5.99373
   C       -6.41389         1.79838        -4.58228
   C       -7.82915         2.27563        -4.29609
   H        0.84009         3.74237         1.32457
   H        5.03899        -0.78498         2.72111
   H        3.70066         2.96511         5.72293
   H        1.00007         0.03194         0.17625
   H        0.11387         3.92509        -3.65250
   H       -0.82839         4.68918        -4.94921
   H       -0.28101         5.90830        -2.19422
   H        0.51076         6.38242        -3.70646
   H       -1.22089         6.67721        -3.47472
   H       -2.93298         5.27237        -5.24605
   H       -4.43703         5.24708        -6.19078
   H       -4.78336         6.30850        -3.97478
   H       -4.24873         4.83851        -3.15874
   H       -5.74490         4.83319        -4.11439
   H       -6.56189         0.36850        -8.22482
   H       -3.71320        -2.27776        -8.98263
   H       -5.34115        -4.03737       -13.89566
   H       -8.29975        -0.19163       -12.75468
   H        1.18617        -1.55945        -1.78221
   H       -0.11161        -2.03801        -0.65137
   H        0.25680        -3.79875        -2.38171
   H       -1.35776        -3.08716        -2.54270
   H       -0.07595        -2.61730        -3.65821
   H       -6.26131         0.78411        -4.19068
   H       -5.68759         2.46211        -4.10224
   H       -8.55175         1.58781        -4.72633
   H       -7.98855         2.33761        -3.22327
   H       -7.98271         3.25560        -4.73951
*
