# ORCA input file
# SCF done       -215.885635685966          0.000393148064
! wb97x-d3 def2-SVP def2/J RIJCOSX Grid4 TightSCF
%maxcore 5000
%tddft
    Mode sTDA
    Ethresh 5.0
    maxcore 5000
end

%pal
  nprocs 6
  end
* xyz 1 2
   C        1.93914        -1.68705        -1.79613
   O        1.83788        -2.89760        -1.77062
   C        2.42198        -0.90282        -2.95572
   C        2.78794        -1.36838        -4.20298
   C        3.19404        -0.43533        -5.14288
   C        3.22775         0.92270        -4.82628
   C        2.86560         1.38847        -3.57096
   C        2.45858         0.46023        -2.62532
   C        2.02322         0.61289        -1.23710
   C        2.07134         1.78625        -0.53024
   C        1.76314         1.94927         0.83790
   N        1.55895         2.17625         1.94511
   C        2.49049         3.01826        -1.07680
   N        2.81448         4.05122        -1.45831
   C        1.62074        -0.69552        -0.75229
   C        0.95740        -0.88300         0.43838
   C       -0.91315       -18.79960         6.64780
   O       -0.56940       -17.67842         6.32480
   C       -0.11956       -20.03620         6.48011
   C        1.14907       -20.17603         5.95444
   C        1.68869       -21.45165         5.91063
   C        0.96432       -22.54578         6.38362
   C       -0.31139       -22.40405         6.91011
   C       -0.85827       -21.13141         6.95790
   C       -2.15221       -20.65019         7.44686
   C       -3.14368       -21.44717         7.95900
   C       -4.40242       -21.00820         8.42021
   N       -5.44815       -20.73951         8.81321
   C       -3.04345       -22.84872         8.09138
   N       -3.02983       -23.98822         8.22873
   C       -2.17201       -19.21240         7.27349
   C       -3.19133       -18.37461         7.65935
   C       -3.32040       -16.98461         7.56846
   S       -2.15430       -15.86598         6.85646
   C       -3.18654       -14.54727         7.24442
   C       -4.38104       -14.96229         7.90190
   C       -4.45121       -16.32956         8.07480
   C       -3.26357       -13.15980         7.15018
   C       -4.48458       -12.76918         7.74944
   N       -5.14990       -13.87057         8.21177
   S       -2.38427       -11.79497         6.57652
   C       -3.64941       -10.71457         7.16883
   C       -4.70039       -11.39046         7.74877
   C       -3.46993        -9.31653         6.94447
   C       -2.07814        -6.27518         4.95639
   S       -2.14822        -4.52235         5.05615
   C       -1.18835        -4.40743         3.62572
   C       -0.84559        -5.67901         3.10066
   C       -1.34946        -6.72529         3.85947
   C       -0.61532        -3.46779         2.77264
   C        0.05440        -4.19443         1.74687
   N       -0.11039        -5.53977         1.95505
   S       -0.45032        -1.77664         2.55717
   C        0.50640        -2.04156         1.08378
   C        0.67962        -3.39485         0.80615
   C        0.49111        -6.59752         1.18347
   C        1.87503        -6.96235         1.71577
   C       -6.45285       -13.88255         8.82638
   C       -7.56202       -14.02037         7.78586
   F        1.51033       -23.76601         6.33146
   F        2.91691       -21.63554         5.41109
   F        3.55439        -0.84048        -6.36751
   F        3.61668         1.80325        -5.75588
   S       -2.52453        -8.87173         5.55430
   C       -2.69630        -7.16483         5.87470
   C       -3.43900        -6.97359         7.03658
   C       -3.88188        -8.19077         7.64229
   C       -3.72575        -5.66316         7.60071
   C       -4.36646        -5.68574         8.90761
   C       -4.78016        -6.90170         9.53794
   C       -4.61961        -8.21370         8.91376
   C       -4.60252        -4.57236         9.67752
   S       -5.33419        -5.01237        11.18057
   C       -5.32609        -6.69613        10.78139
   C       -4.34817        -3.14429         9.36013
   C       -5.48020        -2.56847         8.50369
   C       -5.90547        -7.68343        11.72809
   C       -7.37306        -7.95953        11.38736
   O       -5.05634        -9.23532         9.42278
   O       -3.43579        -4.61486         7.03145
   H        2.75830        -2.41929        -4.44267
   H        2.90755         2.44781        -3.37910
   H        0.70654         0.02190         0.97950
   H        1.70495       -19.32658         5.59095
   H       -0.82694       -23.28217         7.26233
   H       -4.04642       -18.84530         8.12914
   H       -5.25935       -16.86485         8.54025
   H       -5.56522       -10.89815         8.14732
   H       -1.20631        -7.77014         3.64855
   H        1.23469        -3.73793        -0.04659
   H       -0.17011        -7.46713         1.22366
   H        0.56487        -6.26058         0.14656
   H        1.80853        -7.29187         2.75009
   H        2.30238        -7.76379         1.12015
   H        2.53625        -6.10063         1.66701
   H       -6.49089       -14.71823         9.52984
   H       -6.57146       -12.95011         9.38395
   H       -7.44466       -14.94611         7.22744
   H       -8.53152       -14.02879         8.27550
   H       -7.53037       -13.18757         7.08735
   H       -4.26194        -2.57450        10.28727
   H       -3.41505        -3.06641         8.79856
   H       -6.43644        -2.66999         9.01272
   H       -5.29548        -1.51566         8.31081
   H       -5.52565        -3.09131         7.55233
   H       -5.34551        -8.61723        11.65160
   H       -5.83205        -7.29901        12.74715
   H       -7.44581        -8.38882        10.39166
   H       -7.79263        -8.66280        12.10130
   H       -7.95303        -7.03967        11.41920
*
