# ORCA input file
# SCF done       -388.224896370136          0.000757290507
! wb97x-d3 def2-SVP def2/J RIJCOSX Grid4 TightSCF
%maxcore 5000
%tddft
    Mode sTDA
    Ethresh 5.0
    maxcore 5000
end

%pal
  nprocs 6
  end
* xyz 1 2
   C        4.30116         2.08891         4.75907
   C        4.98052         1.28515         5.70685
   C        4.29588         0.66870         6.72666
   C        2.91621         0.86178         6.77538
   C        2.23136         1.62492         5.79857
   C        2.91952         2.25849         4.79066
   C        1.94189         0.42632         7.72186
   C        0.67243         0.89310         7.37435
   C        0.73621         1.63682         6.06508
   C        5.28884         2.60663         3.86653
   C        6.54554         2.11013         4.18296
   C        6.47104         1.23943         5.41115
   S        1.93614        -0.46115         9.17713
   C        0.19087        -0.20355         9.34282
   C       -0.31278         0.53656         8.27379
   S        5.32149         3.70172         2.54829
   C        7.04978         3.46542         2.39797
   C        7.54703         2.58413         3.34372
   C        0.24460         3.06858         6.12507
   C       -0.05540         0.81374         5.05919
   C        6.87003        -0.20472         5.17679
   C        7.32625         1.89875         6.47938
   C       -0.39662        -0.74295        10.49539
   C       -1.69040        -0.73583        10.96039
   C       -2.89721        -0.17346        10.32202
   C       -4.01733        -0.49832        11.23177
   C       -3.53509        -1.19430        12.35069
   C       -2.08640        -1.34445        12.21932
   C       -5.35486        -0.19941        11.07518
   C       -6.23993        -0.60814        12.06437
   C       -5.77052        -1.30325        13.18353
   C       -4.42053        -1.60051        13.33596
   O       -3.00595         0.43154         9.27484
   C       -1.28232        -1.94102        13.15700
   C        0.12121        -2.08037        13.10599
   C       -1.75806        -2.51002        14.35801
   N       -2.06708        -2.99503        15.35174
   N        1.25763        -2.23833        13.16952
   C        7.76573         4.18854         1.39331
   C        7.22378         5.36452         0.80672
   C        7.95293         6.15712        -0.14964
   C        9.24407         5.79149        -0.61878
   C        9.71926         4.61636        -0.05706
   C        9.02417         3.86427         0.90998
   N        6.06862         5.96323         1.00731
   O        6.06810         7.04540         0.23390
   N        7.18915         7.18083        -0.46871
   C       11.22778         9.58766        -3.67766
   C       12.25918         9.06389        -4.49451
   C       12.95208         9.87529        -5.36082
   C       12.58982        11.22088        -5.40083
   C       11.56580        11.74525        -4.57595
   C       10.87831        10.93455        -3.70331
   C       13.08692        12.30466        -6.18447
   C       12.44007        13.49370        -5.84984
   C       11.39922        13.23895        -4.79021
   C       10.72215         8.50415        -2.89693
   C       11.43399         7.34035        -3.15100
   C       12.45333         7.57809        -4.23660
   S       14.23689        12.51213        -7.42836
   C       13.88535        14.23398        -7.48800
   C       12.88976        14.58055        -6.57549
   S        9.47525         8.28165        -1.74309
   C        9.94617         6.60449        -1.56245
   C       11.00462         6.26113        -2.38685
   C       10.04388        13.64008        -5.34365
   C       11.69596        13.93483        -3.47159
   C       13.88871         7.34629        -3.80736
   C       12.06162         6.70022        -5.41303
   C       14.53457        15.02755        -8.44961
   C       14.61256        16.39159        -8.53103
   C       14.89633        17.02716        -9.84093
   C       14.55738        18.45779        -9.65463
   C       14.21494        18.68644        -8.30964
   C       14.38025        17.43860        -7.56610
   C       14.53838        19.47349       -10.58752
   C       14.15790        20.74412       -10.17131
   C       13.80605        20.97572        -8.83749
   C       13.83695        19.95185        -7.89641
   O       15.27887        16.48260       -10.85078
   C       14.55324        17.34496        -6.20770
   C       15.03086        16.18097        -5.57615
   C       14.36530        18.41075        -5.30683
   N       14.19476        19.23353        -4.52425
   N       15.47012        15.27106        -5.03068
  Cl       -7.91421        -0.25782        11.90970
  Cl       -6.87428        -1.80511        14.40061
  Cl       13.32623        22.54863        -8.34188
  Cl       14.11994        22.03417       -11.30469
   C       12.99202        14.29981        -3.13606
   C       13.25566        14.90944        -1.92379
   C       12.23978        15.15151        -1.00909
   C       10.94860        14.76149        -1.34036
   C       10.67742        14.15721        -2.55358
   C        9.15879        12.70379        -5.85272
   C        7.92830        13.08670        -6.37196
   C        7.59730        14.43373        -6.39078
   C        8.48436        15.37873        -5.90455
   C        9.70254        14.98733        -5.38277
   C       11.31296         7.18733        -6.47429
   C       10.92632         6.34645        -7.50256
   C       11.26476         5.00066        -7.49207
   C       12.00667         4.51610        -6.42183
   C       12.39649         5.35135        -5.39325
   C       14.87594         7.13540        -4.76181
   C       16.19346         6.96644        -4.38160
   C       16.56086         7.00667        -3.04266
   C       15.57203         7.23003        -2.09444
   C       14.25226         7.40148        -2.46950
   C        6.86131        -0.75377         3.90265
   C        7.18911        -2.08343         3.71015
   C        7.52035        -2.89998         4.78256
   C        7.51741        -2.34780         6.05728
   C        7.19449        -1.01916         6.25476
   C        6.78227         2.75421         7.42623
   C        7.59669         3.38107         8.35216
   C        8.97015         3.18198         8.34841
   C        9.51072         2.33440         7.38935
   C        8.70231         1.70428         6.46346
   C        0.21730         3.76958         7.32188
   C       -0.19674         5.08879         7.35169
   C       -0.58548         5.74190         6.19030
   C       -0.54197         5.03965         4.99255
   C       -0.13228         3.72087         4.95755
   C       -1.44394         0.86900         5.09281
   C       -2.19653         0.09523         4.23156
   C       -1.58601        -0.75928         3.32158
   C       -0.19972        -0.81376         3.29725
   C        0.56040        -0.04245         4.15868
   C       12.52475        15.86311         0.28154
   C       12.43501        17.37776         0.08368
   C        6.96004        12.04236        -6.84833
   C        6.18019        11.46199        -5.66659
   C       10.87974         4.10137        -8.63102
   C       11.96980         4.10185        -9.70473
   C       17.99943         6.86579        -2.63717
   C       18.69181         8.23023        -2.64801
   C       -0.99475         7.18613         6.21617
   C        0.21036         8.08781         5.94094
   C       -2.40437        -1.56893         2.35763
   C       -2.64524        -0.78175         1.06787
   C        9.84372         3.82801         9.38446
   C        9.97136         2.92438        10.61261
   C        7.92323        -4.33009         4.56720
   C        9.43961        -4.43622         4.39226
   F       10.92906         4.14701        -0.40994
   F        9.65213         2.76461         1.36280
   H        4.79486         0.06722         7.47048
   H        2.42022         2.86502         4.05129
   H       -1.35251         0.79310         8.19636
   H        8.58605         2.32516         3.42322
   H        0.32026        -1.25391        11.12701
   H       -5.69961         0.33795        10.20592
   H       -4.10082        -2.13819        14.21295
   H       13.74452         9.49779        -5.98828
   H       10.09881        11.31635        -3.06243
   H       12.49239        15.57620        -6.49682
   H       11.42417         5.27367        -2.42997
   H       14.96562        14.49810        -9.29382
   H       14.81324        19.28505       -11.61323
   H       13.55928        20.16216        -6.87611
   H       13.80541        14.12095        -3.82322
   H       14.26963        15.19867        -1.68917
   H       10.14310        14.93254        -0.64023
   H        9.66355        13.87000        -2.79312
   H        9.41995        11.65525        -5.84373
   H        6.64277        14.74522        -6.78966
   H        8.22287        16.42642        -5.92817
   H       10.38602        15.72476        -4.98766
   H       11.02909         8.22919        -6.50304
   H       10.34695         6.74397        -8.32387
   H       12.27788         3.47046        -6.39130
   H       12.97430         4.95733        -4.56988
   H       14.60972         7.08854        -5.80808
   H       16.94813         6.79691        -5.13643
   H       15.83609         7.26825        -1.04725
   H       13.50047         7.57526        -1.71355
   H        6.60205        -0.13943         3.05276
   H        7.18453        -2.49245         2.70980
   H        7.76980        -2.96653         6.90662
   H        7.20859        -0.60690         7.25337
   H        5.71741         2.93491         7.44476
   H        7.15545         4.04042         9.08604
   H       10.57851         2.16978         7.36431
   H        9.14026         1.04788         5.72548
   H        0.51480         3.28302         8.23948
   H       -0.22080         5.61697         8.29425
   H       -0.83746         5.53029         4.07610
   H       -0.11907         3.18790         4.01765
   H       -1.93609         1.52538         5.79497
   H       -3.27483         0.14990         4.27157
   H        0.29636        -1.47385         2.59981
   H        1.63790        -0.11274         4.12436
   H       11.80539        15.55487         1.04309
   H       13.52633        15.60547         0.63161
   H       11.43774        17.65719        -0.24890
   H       12.64888        17.89659         1.01517
   H       13.14934        17.70421        -0.66866
   H        6.26077        12.48193        -7.56192
   H        7.50155        11.23776        -7.35070
   H        5.62755        12.24778        -5.15641
   H        5.47524        10.70818        -6.00902
   H        6.85949        11.00214        -4.95218
   H       10.73526         3.08263        -8.26584
   H        9.94096         4.44317        -9.07159
   H       12.91138         3.75142        -9.28788
   H       11.69135         3.45082       -10.53005
   H       12.11997         5.10766       -10.09070
   H       18.06163         6.43834        -1.63449
   H       18.51521         6.19518        -3.32751
   H       18.19818         8.91017        -1.95731
   H       19.73387         8.13062        -2.35348
   H       18.65178         8.66718        -3.64323
   H       -1.75942         7.36735         5.45804
   H       -1.41553         7.43476         7.19234
   H        0.63686         7.86315         4.96594
   H       -0.08536         9.13415         5.95842
   H        0.97951         7.93105         6.69398
   H       -1.88331        -2.49854         2.11959
   H       -3.36543        -1.82161         2.80970
   H       -1.69798        -0.52976         0.59619
   H       -3.23657        -1.36830         0.36864
   H       -3.17677         0.14257         1.28289
   H       10.83635         4.01328         8.96922
   H        9.41452         4.78575         9.68562
   H       10.41165         1.96922        10.33520
   H       10.60136         3.39200        11.36554
   H        8.99200         2.73613        11.04679
   H        7.61696        -4.93399         5.42376
   H        7.42972        -4.72424         3.67662
   H        9.94953        -4.06041         5.27650
   H        9.73333        -5.47144         4.23534
   H        9.76338        -3.84911         3.53572
*
