82
 SCF done       -161.109052842562          0.000843444458
C           0.67518591004877   -0.34296537028175    0.26592965795071
C           0.86402683243671   -0.36354952968422    1.63097843440450
C           0.88743492485874    0.80942838712135    2.49235760738995
C           1.09489401691159    0.31385480615260    3.86617291053407
C           1.19943426597886   -1.08783866656422    3.83715528156516
C           1.05795912812903   -1.54201535851798    2.45101851114510
C           1.18484053360457    1.03530073464192    5.03980272045094
C           1.38702333578590    0.32765236698504    6.21409737398227
C           1.49600634280508   -1.06275776760973    6.19591025848053
C           1.40437770201256   -1.78686758510517    5.01545621153222
O           0.76113992533038    1.98109944761301    2.16173075149082
C           1.10286657297538   -2.84966202936831    2.04403962418058
C           0.97572470458517   -3.30432822559036    0.71412254683371
C           1.28466699509793   -3.94454911605053    2.91653367238132
F           1.69337785466257   -1.71997669843756    7.34352508202937
F           1.47905553749320    0.98450799455036    7.37621517520998
N           1.42510402748088   -4.87877492009457    3.56779777663016
N           0.88429615623132   -3.75846970854797   -0.33693035109018
C           0.47260463041560    0.72793248948492   -0.60888805758299
C           0.28761826000673    0.50828340219884   -1.98224837823890
C           0.08944627519132    1.62654136881582   -2.76258533330398
C           0.10452797929004    2.83228804701754   -2.06622972772924
Se          0.39461680267909    2.57895658740418   -0.23455771384765
C          -0.08237374927867    4.11265011499739   -2.63421562511567
S          -0.37459425173584    4.34651601986373   -4.33004661315047
C          -0.49872636018985    6.07789610206568   -4.13605127626776
C          -0.31001886828842    6.43448455913908   -2.80147311423545
C          -0.08550924495497    5.32684638834437   -1.98081367288719
C          -0.32568569007352    7.81463417761462   -2.22490919950146
C           1.08485050547573    8.40714366284695   -2.18101188016592
C          -0.75026491146281    6.90618249899825   -5.26819931261051
S          -0.35931810531849    8.60701405997697   -5.20391216586675
C          -0.91666239036978    8.86786969301609   -6.82414170765702
C          -1.37253791310679    7.68601286588953   -7.36805839078118
C          -1.28245634527354    6.58136503309731   -6.51416239380677
C          -1.73226546681570    5.23009713499386   -6.97277324834425
C          -0.60358465340973    4.49170356012825   -7.69571060046319
C          -0.87276340919895   10.16783205815267   -7.38734087498080
C          -1.21772363884497   10.54235299921588   -8.67760777595132
C          -1.10231146236938   11.89847825513656   -8.94857613868651
C          -0.62054828266970   12.69387148135821   -7.91398258825957
Se         -0.30970663395608   11.63949694439200   -6.37983645888812
C          -0.53531371437857   14.09899596301449   -7.96602064259372
C           0.02989721257951   14.97367188207850   -7.08030606567492
C          -0.44530346165271   16.37804146361905   -7.03222211608150
C           0.02336734309587   16.89385125287761   -5.72250889056390
C           0.82963990429900   15.92532569543171   -5.09835139032569
C           0.97382907918035   14.78509307436294   -6.00363266488854
C          -0.25621438154197   18.10480713248669   -5.12099188967333
C           0.27640719810896   18.33661379191556   -3.86225244195480
C           1.06710133346696   17.37440696836515   -3.23295895475005
C           1.35958858231768   16.16246999211396   -3.84115138783585
O          -1.11352017886499   16.95465374210420   -7.85788030556948
C           2.01457392928900   13.89004556789622   -5.98602500128463
C           2.29698259427177   13.03064236210292   -7.06897564458446
C           2.96504455831533   13.80907805229408   -4.94902049124042
F           1.55253181020568   17.62083744571764   -2.01124765108377
F           0.02570799511276   19.49499451643624   -3.24063848235046
N           3.74671071475299   13.69408312543400   -4.11663664781269
N           2.57879749468368   12.35527960064814   -7.95369854145507
H           0.67686456208225   -1.30537743837658   -0.23348429605339
H           1.10188106274994    2.11023474677671    5.04890319263021
H           1.49524556678827   -2.85965067501380    5.05774275646280
H           0.30060067404878   -0.49061888531915   -2.38720706960791
H          -0.06656060924052    1.58585486356849   -3.82847976422350
H           0.07063694944884    5.39665783775986   -0.91522656320952
H          -0.98450748959849    8.46799506516619   -2.79813205630718
H          -0.71508761329428    7.75473439248679   -1.20635665070496
H           1.51081047355788    8.47069361859630   -3.17927948688272
H           1.05677531989901    9.40648566980516   -1.75556102272882
H           1.73474316917706    7.78605678451404   -1.56910742992921
H          -1.77400758938981    7.61806012864740   -8.36326691516458
H          -2.08395724733356    4.63346264645803   -6.13056026301576
H          -2.56801581324860    5.36233449439789   -7.66320015159959
H           0.24839003978493    4.34970861899238   -7.03580717821330
H          -0.94871454993668    3.51682614436324   -8.02916791155682
H          -0.27531141380821    5.06059877252606   -8.56240594967049
H          -1.55254754333845    9.82830507672980   -9.40970668070922
H          -1.34227798345876   12.32121123597686   -9.90996400330190
H          -1.09060952236076   14.56844088457343   -8.77375462636146
H          -0.86719022816410   18.84875925805452   -5.60681124616029
H           1.97262393036955   15.44610686554452   -3.31861847031363
