# ORCA input file
# SCF done       -252.538142907481          0.000655611929
! wb97x-d3 def2-SVP def2/J RIJCOSX Grid4 TightSCF
%maxcore 5000
%tddft
    Mode sTDA
    Ethresh 5.0
    maxcore 5000
end

%pal
  nprocs 6
  end
* xyz 0 1
   C       -1.99955         0.88588        -1.17964
   C       -1.92089         1.65716         0.00017
   C       -3.34145         0.20753        -1.29710
   C       -4.06138         0.81803        -0.13351
   C       -3.19109         1.61850         0.61308
   C       -4.10501         0.47843        -2.57804
   C       -3.04077        -1.27867        -1.14099
   C       -5.34249         0.81035         0.39681
   C       -5.43680         1.59893         1.56461
   S       -3.91981         2.34560         2.00523
   C       -3.44727        -2.01479        -0.03990
   C       -3.08072        -3.34415         0.07752
   C       -2.29556        -3.95910        -0.88747
   C       -1.90242        -3.21538        -1.99387
   C       -2.27167        -1.89208        -2.12284
   C       -5.19239        -0.32912        -2.88684
   C       -5.94720        -0.07619        -4.01452
   C       -5.63460         0.98223        -4.85948
   C       -4.54749         1.78438        -4.54158
   C       -3.78904         1.54132        -3.40995
   C       -8.96377         0.76065         1.71258
   C      -10.00735         0.11853         1.08671
   C      -11.37790         0.10425         1.55543
   C      -12.16862        -0.64083         0.57366
   C      -11.31553        -1.08311        -0.45113
   C       -9.93550        -0.63700        -0.16623
   O       -8.95483        -0.86687        -0.84940
   C      -11.87765         0.66401         2.70409
   C      -13.23322         0.59759         3.09076
   N      -14.31844         0.58092         3.46376
   C      -11.13415         1.37658         3.66785
   N      -10.60253         1.96657         4.49838
   C      -13.52074        -0.94052         0.52037
   C      -13.98310        -1.67713        -0.56076
   C      -13.12698        -2.11249        -1.57224
   C      -11.77382        -1.81747        -1.52632
   F      -15.28514        -1.97455        -0.63073
   F      -13.61669        -2.82076        -2.59698
   S       -6.85420         0.10485        -0.02873
   C       -7.61287         0.86957         1.37016
   C       -6.70104         1.63244         2.12906
   S       -0.43906         2.21851         0.73187
   C        0.33655         1.22541        -1.71306
   C       -0.85545         0.83540        -1.90452
   C        1.49531         2.11648        -1.63280
   C        0.87984         1.52501        -0.31262
   S        1.20167         3.73714        -2.16499
   C        2.87437         1.42843        -1.82300
   C        2.95429         0.49267        -0.64400
   C        1.87452         0.64913         0.21587
   C        2.82420         0.75571        -3.17781
   C        4.00000         2.43648        -1.66040
   C        2.84879         1.53987        -4.32658
   C        2.73923         0.95495        -5.57273
   C        2.59201        -0.42075        -5.70669
   C        2.54175        -1.19398        -4.55522
   C        2.64475        -0.61449        -3.30334
   C        3.94437         3.34612        -0.61110
   C        4.96687         4.25406        -0.41352
   C        6.07633         4.27008        -1.24827
   C        6.13643         3.34476        -2.28151
   C        5.11464         2.43633        -2.48701
   C        2.52756        -1.05603        -7.06505
   C        3.93649        -1.36529        -7.57551
   C        7.21025         5.22271        -1.00495
   C        8.25809         4.58109        -0.09274
   C        3.89136        -0.44007        -0.19785
   C        3.51873        -0.97810         1.03866
   S        2.01313        -0.29206         1.63716
   C       -7.02886         2.43911         3.34291
   C       -7.59058         3.80905         2.95173
   C        4.18021        -1.88213         1.89851
   C        4.98247        -2.95267         1.61422
   C        5.16889        -3.74085         0.42391
   C        6.37321        -4.54856         0.61619
   C        6.79743        -4.41640         1.95019
   C        5.90188        -3.47108         2.65872
   C        7.06929        -5.36650        -0.25820
   C        8.18208        -6.03765         0.22812
   C        8.59142        -5.90988         1.55556
   C        7.89805        -5.09285         2.43577
   O        5.93400        -3.15439         3.82442
   C        4.26589        -3.89759        -0.60023
   C        4.46892        -4.73366        -1.71613
   C        2.99120        -3.30258        -0.61995
   N        1.92138        -2.88827        -0.68402
   N        4.58462        -5.37900        -2.65853
   F        9.66691        -6.58122         1.98318
   F        8.87806        -6.82271        -0.60111
   C        5.21089        -0.65308        -0.86916
   C        6.32332         0.06390        -0.10022
   C       -6.49075         1.27764        -6.05665
   C       -7.70981         2.10651        -5.64673
   C       -1.82251        -5.37159        -0.70978
   C       -0.51975        -5.38623         0.09354
   H       -4.05118        -1.55895         0.73057
   H       -3.40590        -3.90795         0.94006
   H       -1.29223        -3.67523        -2.75708
   H       -1.95625        -1.32532        -2.98753
   H       -5.44637        -1.15746        -2.24223
   H       -6.79183        -0.71012        -4.23985
   H       -4.28790         2.61339        -5.18413
   H       -2.95015         2.18316        -3.18118
   H       -9.21798         1.28896         2.62099
   H      -14.22520        -0.62910         1.27374
   H      -11.10757        -2.15205        -2.30529
   H        2.94297         2.61210        -4.23868
   H        2.76068         1.57775        -6.45535
   H        2.41169        -2.26398        -4.63177
   H        2.57147        -1.23692        -2.42411
   H        3.09553         3.35251         0.05748
   H        4.89962         4.96055         0.40092
   H        6.99244         3.33592        -2.94092
   H        5.18827         1.73241        -3.30276
   H        1.95247        -1.98247        -7.01374
   H        2.03081        -0.38179        -7.76567
   H        4.44231        -2.04902        -6.89734
   H        3.89169        -1.82321        -8.56069
   H        4.52374        -0.45206        -7.64327
   H        7.67674         5.49265        -1.95434
   H        6.83414         6.13405        -0.53678
   H        8.65322         3.67523        -0.54760
   H        9.08142         5.26916         0.08286
   H        7.81572         4.31725         0.86546
   H       -7.74887         1.92039         3.97731
   H       -6.11060         2.58224         3.91625
   H       -8.50750         3.70039         2.37744
   H       -7.81098         4.38421         3.84618
   H       -6.86848         4.35789         2.35170
   H        4.06311        -1.68328         2.96085
   H        6.79111        -5.49436        -1.29179
   H        8.21350        -4.99475         3.46220
   H        5.45304        -1.71256        -0.94347
   H        5.15243        -0.25088        -1.88058
   H        6.41078        -0.33424         0.90850
   H        7.27289        -0.07144        -0.61131
   H        6.11370         1.12911        -0.03769
   H       -5.91303         1.82845        -6.80119
   H       -6.82842         0.34250        -6.50810
   H       -7.39489         3.05507        -5.21736
   H       -8.34068         2.30789        -6.50922
   H       -8.29656         1.57267        -4.90254
   H       -2.57895        -5.95799        -0.18428
   H       -1.64883        -5.82970        -1.68507
   H       -0.68688        -4.99137         1.09325
   H       -0.13669        -6.40047         0.17921
   H        0.23060        -4.76682        -0.39345
*
