97
 SCF done       -190.440156832197          0.000856122531
C          -0.91054712423487   -0.71534222368961    0.65835689547906
O          -0.87888781872034    0.47503962325088    0.92007331387406
C          -1.62178578783608   -1.75510612851056    1.42825107612097
C          -2.38738115450330   -1.61252233676148    2.56644386784642
C          -2.96254518777778   -2.75054384124121    3.11853733875028
C          -2.76049286279799   -4.00055985015956    2.52461787490014
C          -1.98668834573665   -4.13807436950905    1.37642064455950
C          -1.41249252901478   -3.00619772781814    0.82291080122511
C          -0.56460264379713   -2.82307270260827   -0.35557199081268
C          -0.14756349121695   -3.83061538399756   -1.18816045136322
C           0.67139998805498   -3.67746749138721   -2.32602815698621
N           1.33329396079999   -3.63953096621935   -3.26482381246731
C          -0.48493196786451   -5.18964053128551   -1.01505728039558
N          -0.71917560215494   -6.31042580208938   -0.93631184512215
C          -0.26388746901056   -1.40925889859844   -0.45506336613122
C           0.50148929266373   -0.82828607194579   -1.44065716098871
C           0.86301450681288    0.50221813875485   -1.65761660773820
S           0.40440273785784    1.85797707834309   -0.62387394790730
C           1.25730890877589    2.94585971829048   -1.65161100303125
C           1.85495877419740    2.28375196494417   -2.74026460477362
C           1.64966171230761    0.91238354494887   -2.75156039785611
C           2.16556077805489    0.02557070923684   -3.83673629563451
C           1.09597429217618   -0.20586453155304   -4.90791861175362
S           2.72262174586045    3.35541147640826   -3.82545369601888
C           2.28076283557876    4.68403612125107   -2.81129891655264
C           1.51623417763766    4.31783628632953   -1.69744309839366
N           1.19735587126444    5.42925383281871   -0.96645222673258
C           0.29194538155302    5.28064792795613    0.14962254986776
C           1.00684152393689    4.76249452382241    1.39775780652294
C           1.76152204356225    6.53033124786116   -1.58183954925111
C           2.42607250074301    6.07425017862175   -2.76392793655516
C           3.02836782600594    6.95667147837649   -3.68700044689925
N           3.64621987813168    6.67114934193362   -4.82254510060766
S           4.10166944027957    8.05907541710531   -5.51950208625925
N           3.52907539613301    9.07652926617053   -4.39847722841854
C           2.96138789150170    8.36351479451190   -3.43823338864362
C           2.36515254508745    8.81293286482716   -2.23999578454371
C           1.79956989316204    7.92101480993350   -1.27810225952476
N           1.40077122276847    8.67691085027312   -0.18918750731897
C           0.91272879446990    8.33059386714853    1.12401305148381
C          -0.58998097127425    8.57834397349566    1.25584964365295
C           1.67338242308369    9.99099308374313   -0.45497361889424
C           2.26357147164282   10.10780878784813   -1.71715746416482
S           2.67983207793120   11.72687775044581   -2.14177530176123
C           2.07879325585359   12.26631026198437   -0.58625681280558
C           1.56414247582960   11.22250766191747    0.19987229697414
Se          0.91067111165554   11.88093230089210    1.81096983433617
C           1.53369530305046   13.60108097318780    1.24087632446268
C           2.05685662795360   13.56220113077704   -0.05007499398330
C           2.46307645534844   14.72476768063597   -0.89132397016892
C           1.40676259148841   15.82488476315655   -0.96688281195782
C           1.31527125652722   14.62589607335719    2.17816731455364
C           2.01507607447690   15.78375446368748    2.41161162435290
C           1.58144008771233   16.85152031831977    3.29000839267714
C           0.32706027392712   17.02041112819636    3.81721540199406
C          -0.03821800915813   18.09177353639280    4.65903016085119
N          -0.39567705922030   18.93258115089222    5.35387574107564
C          -0.77608819294170   16.17486886029556    3.57457813111426
N          -1.72341507504073   15.54779928375750    3.40505348782526
C           2.69882833440536   17.78024066670766    3.44150724662822
C           2.83058324146780   18.94594075692158    4.17748756137154
C           4.03531569133290   19.63857856920864    4.11752472065525
C           5.09855176041698   19.17757614576310    3.33414240297604
C           4.97131174869039   18.00433154558012    2.60035474090333
C           3.77397726715610   17.32257892569309    2.66106245137832
C           3.40208697798514   16.05313821478907    1.99863067608213
O           4.13655994821335   15.34408668701748    1.33955043909240
Cl          6.57006549208708   20.06179645153018    3.27761135840749
Cl         -3.92394510029485   -2.61724885487098    4.53538847027596
Cl         -3.47637258988364   -5.39970501981690    3.21690096273838
Cl          4.21051554716045   21.08332427688548    5.02906682935146
H          -2.53439220153376   -0.64232627553013    3.01398547328388
H          -1.85462635533692   -5.11831735168449    0.94920876263788
H           0.89553661851522   -1.50351205212287   -2.18757332171418
H           3.02708973767584    0.51515214281633   -4.29507270106340
H           2.49113478077209   -0.93586064795571   -3.43702399168040
H           0.78947893897670    0.74058268909205   -5.34707342039399
H           1.49456470690104   -0.84276477988394   -5.69213013888518
H           0.22141722247971   -0.69153388770432   -4.48161567803822
H          -0.21927035525351    6.22108190550413    0.33266349319711
H          -0.46331824356607    4.54389145615816   -0.14353557850657
H           1.88257364849240    5.36260016358283    1.63789152170834
H           0.32499738879180    4.77529812642178    2.24312079172997
H           1.33379194517480    3.73835522341697    1.24079667809543
H           1.17778395521733    7.30371843776846    1.35720039319588
H           1.43459812813140    8.97711966502956    1.84213883001194
H          -1.14846874895940    8.08719796905961    0.46164965677297
H          -0.94202714074838    8.21148125450191    2.21573145725989
H          -0.79954856349965    9.64587021500775    1.19851537467029
H           3.39479834435743   15.13506975003568   -0.48955125948373
H           2.67035894309680   14.35435918734221   -1.89792708623955
H           1.23305068359887   16.27935946204742    0.00477854519255
H           1.73722944260221   16.60087488472356   -1.65249899857720
H           0.46388646371452   15.42127964969876   -1.33051461004859
H           0.49113239253563   14.42462774942145    2.85759316375349
H           2.03520105939667   19.32820223042637    4.79605139394059
H           5.78539477464869   17.63586507525820    1.99645954696996
