176
 SCF done       -300.703730770849          0.000840782523
C           1.62840792948132   -3.05385690633459    0.07836135569601
C           1.72911518022805   -2.39625974136925    1.32795190295154
C           0.78596723295009   -1.46270230737597    1.74925897131294
C          -0.29135326714484   -1.24521271498435    0.92458957894239
C          -0.43375045612364   -1.95920258171167   -0.29059273866897
C           0.54180626063719   -2.84786928800806   -0.73864526653116
C           2.79106107893654   -4.01408962155245   -0.12149510834623
C           3.45014091589694   -3.94922261132873    1.23416164680466
C           2.85145964827537   -2.96059664454858    2.00255197738258
C           4.46293771897211   -4.62089644744386    1.90307206170114
C           4.62883170391057   -4.17989659594480    3.21049685883391
S           3.53272485351930   -2.85052989883488    3.56672330366871
C          -1.50115173929449   -0.36314554586363    1.18474078601375
C          -2.38179805162189   -0.74787467680222    0.02456235662571
C          -1.71504935685265   -1.62035001789537   -0.82563159583799
C          -3.64403838772738   -0.39774531960208   -0.43172011693700
C          -3.95474549533886   -1.01688418241955   -1.63280348791500
S          -2.66523270302805   -2.06649788251391   -2.18213426086256
C           5.52824441426034   -4.72434693418486    4.17847857779870
C          -5.17658699227784   -0.92860362373586   -2.36676457518332
C          -2.05385221391395   -0.69578711047761    2.55414736116567
C          -1.23926429192399    1.12451964823646    1.02309924755800
C           2.26027954281396   -5.38196490791962   -0.49631829939964
C           3.80822663109531   -3.51316391380781   -1.13527790100670
C           5.40249768491901   -4.56830204050347    5.57575579503486
C           6.34034467254340   -5.15848064900246    6.47184910840990
C           7.44684854824310   -5.90691550866233    6.07753916184098
C           7.54962833068627   -6.12548702285481    4.68471152622857
C           6.61565877241657   -5.53835259530125    3.75425115143131
C          -6.02574126448922    0.18946517615936   -2.33601636950006
C          -7.32601583657422    0.17162182253225   -2.93507017692948
C          -7.84617360967147   -0.94144462396025   -3.60295747241876
C          -6.96278646239482   -2.05280647644095   -3.68522632429919
C          -5.64276023482522   -2.03431046751008   -3.11609178477022
N           8.43689356186922   -6.90989324397912    4.07664267246074
S           8.17771559533837   -6.85999453255274    2.49557543133433
N           6.90647102198474   -5.88414586070032    2.49818723375735
N          -7.22158695500472   -3.20987557915729   -4.29260664714344
S          -5.93925150543960   -4.17094328543158   -4.16088868511708
N          -4.99397819022071   -3.17918977001772   -3.32521076427809
C           8.33092590375408   -6.49957173896681    7.03233997878372
C           9.64424720003961   -6.76705768973433    6.84481910559673
C          -9.16132535749096   -1.13383124378494   -4.12321927489494
C         -10.03332952052201   -0.23790739636883   -4.65215573909548
C          -9.78239868141001    1.12280427174508   -5.09471715171268
N         -10.94560634735032    1.71405559793350   -5.56932289594623
C         -12.05078601382357    0.92794513761318   -5.58972911833503
S         -11.69093362845911   -0.68841457712605   -5.01963196471215
C          10.52680736891894   -6.24520619447667    5.80122365580451
N          11.78083153979803   -6.84266291471222    5.88946290951779
C          11.97212998581095   -7.69585369471640    6.92682985478326
S          10.55258222706479   -7.78389534539020    7.94850383779808
C          12.75941064020128   -6.54662477223747    4.86041910139338
O          10.28306723596694   -5.36676041603924    5.00641596019441
C          13.09085491080072   -8.42625336704807    7.23905245300404
C          13.08734908855491   -9.24387035482995    8.38913672959320
C          14.29183320652474   -8.47544647720272    6.51114941358877
C           2.04959301086624   -5.70613865806838   -1.83066609432050
C           1.52345064290873   -6.93543932335235   -2.17915421293484
C           1.18801845635104   -7.86958507969514   -1.20773815404106
C           1.39075827439056   -7.53641888543700    0.12469178244966
C           1.91399847960689   -6.30662909858036    0.47887058448716
C           3.73864617075543   -2.24450558944165   -1.69062827171574
C           4.70465552069215   -1.81909047634992   -2.58537575858668
C           5.76290357926691   -2.64271981858201   -2.94176072109707
C           5.83422871170557   -3.90803025070838   -2.37172703881080
C           4.87197523841069   -4.33884093863617   -1.48008168076240
C          -1.55317542533540   -0.04867709995853    3.67738460773365
C          -1.99438571927402   -0.39391645181967    4.94022249503806
C          -2.94290497067781   -1.39340280616426    5.11598404757892
C          -3.44147528023075   -2.03477384180460    3.99013265074735
C          -2.99888312627315   -1.69716838343863    2.72397342737170
C          -2.23666029729063    2.02128460580440    1.38941053155338
C          -2.08105661178511    3.37459624213473    1.16595527194513
C          -0.92670962099242    3.86959059759260    0.57175636848458
C           0.06940078211764    2.97094234318314    0.21603659167343
C          -0.08348222500150    1.61274013055218    0.43327135656827
O          -8.70602471026455    1.68617585735401   -5.11293117433390
C         -10.90563595318473    3.11458662668124   -5.94772027332309
C         -13.32153794220713    1.24625081066215   -5.99984850595080
C         -14.32796562612977    0.25868522544520   -5.96204672702802
C         -13.76549981371166    2.49519126648919   -6.46570050619285
N          13.09988510203426   -9.91553576228440    9.31883937852145
N          15.29561316995144   -8.57166378301678    5.96035219014635
N         -14.19925587952795    3.48798132504920   -6.84785395016819
N         -15.15502631158482   -0.53564172387130   -5.93668841499254
C          -3.45063677355537   -1.73405150880738    6.48736366158683
C          -0.79063611003565    5.33306346016379    0.26572319983156
C           6.83111449496234   -2.15969134425032   -3.87969378465082
C           0.66718105373763   -9.22435241518894   -1.59152335123328
C           1.82458334699188  -10.20845495469171   -1.77333044256057
C           7.94981473894414   -1.46318394749055   -3.10216573128310
C          -4.63544924654295   -0.83866183746501    6.85550261356750
C          -1.31504200995915    5.62944950399840   -1.14124938805262
C         -11.32695155244707    4.01123556196136   -4.78956017441526
C          12.71517171426716   -7.58581735045966    3.74632380642176
C           4.38106170025987   -3.89995127915979    6.30379424728853
C           4.54190688621950   -3.95343182907652    7.65216605600072
S           5.96660233032492   -4.82421762320175    8.13572649292744
C           3.66218602990712   -3.39407902873015    8.68366722040860
O           3.81194494061969   -3.56262210232829    9.86810952139164
O           2.68093583727936   -2.66758242960350    8.13090133530295
C           1.71725780899288   -2.08958677627731    9.01245091379220
C           0.47808853151191   -2.96794377746278    9.11066104127771
C          -5.74979201490906    1.44473476397610   -1.73325921650634
C          -6.80387895697194    2.30174498495356   -1.77925513903837
S          -8.17899126663909    1.64135999439680   -2.61104054462733
C          -6.88723928170048    3.66923617045082   -1.25966064069744
O          -5.72957904876191    4.04508302723710   -0.69663818281259
O          -7.87099710141145    4.36323724665538   -1.33315398864028
C          -5.68829615574656    5.35365611186421   -0.12519371425083
C          -6.23258954156224    5.35514646046469    1.29605557237171
H           0.88836639240106   -0.96379435047020    2.70054037535222
H           0.42330854019156   -3.37385387491497   -1.67339329248110
H           5.04480768919672   -5.42647061435207    1.49866431669690
H          -4.33858949810641    0.21611312231916    0.10998169286568
H           7.88287437547740   -6.77685731475263    7.97983205479343
H          -9.48182137234505   -2.16937064978002   -4.10817371572290
H          12.48412700278722   -5.56534325687017    4.46329423631841
H          13.75294927273623   -6.49087884903090    5.30707881397682
H           2.30875500221445   -4.99549766280610   -2.60237772896618
H           1.36922133456593   -7.17225315101411   -3.22228640469928
H           1.13181926154688   -8.24678006721421    0.89703941292979
H           2.05507176791920   -6.06684427667695    1.52291954893873
H           2.92542365842840   -1.58261209222795   -1.43136564603373
H           4.63082031331769   -0.83001040343931   -3.01479076933359
H           6.65214017174703   -4.56447671224958   -2.63206078731694
H           4.93811567316120   -5.32888107975548   -1.05375860737090
H          -0.81918738542962    0.73593670995551    3.56052082031989
H          -1.59312687249049    0.11780450407397    5.80359722584913
H          -4.18114375662112   -2.81441351187311    4.10469813606071
H          -3.39140292235023   -2.21754556279466    1.86216273068210
H          -3.13863897531306    1.65314700176819    1.85688080018627
H          -2.86842988028520    4.05684907272473    1.45277716740830
H           0.97717740042507    3.33626543510143   -0.24272548024073
H           0.70179598792969    0.93149959348823    0.13968316131402
H          -9.86571326436558    3.32058768162849   -6.21568800633600
H         -11.54272978849283    3.27209347873373   -6.81901555758072
H          -3.76608481956875   -2.77878416115959    6.51722975787534
H          -2.65447253104340   -1.59569369216101    7.22197548843627
H          -1.35672358319897    5.91846205593722    0.99327839543915
H           0.25761348470793    5.63152312952419    0.32858187752400
H           7.24871183631399   -3.00388134039697   -4.43194876412079
H           6.40304269513659   -1.45853229261064   -4.59897712885389
H          -0.00353850306373   -9.59747070965889   -0.81501256263601
H           0.10495035501345   -9.15423555410426   -2.52472316724315
H           2.39013647998037  -10.30212989633531   -0.84894904986658
H           1.44941770344026  -11.19025501365888   -2.05217460388453
H           2.49864697455267   -9.85952588649168   -2.55244639840138
H           8.39723121194657   -2.14939250484181   -2.38667178339637
H           8.72447753013857   -1.11402650570727   -3.78076643200898
H           7.55562720127504   -0.60934973993829   -2.55554621005031
H          -5.44489228964698   -0.97002422729453    6.14093745280393
H          -5.00497933036272   -1.08492143082576    7.84800315182956
H          -4.33696328595240    0.20728637732418    6.84529281844754
H          -2.35408045087273    5.31931617620319   -1.23265721857441
H          -1.24783339466006    6.69303722092030   -1.35774935989633
H          -0.73385414871153    5.08653270421631   -1.88314063310497
H         -10.66414325365340    3.86506986573213   -3.93926435915178
H         -11.27100662615247    5.04974401848896   -5.10131437131524
H         -12.34991715148113    3.80102165659415   -4.48592162282327
H          11.71315911975133   -7.63643128432758    3.32531969328403
H          13.41348838255090   -7.30541005984632    2.96359556929420
H          12.99536797934513   -8.56850317660625    4.11820342773941
H           3.53049153038057   -3.40934466282356    5.87319823670674
H           2.17345966484225   -1.95691868112842    9.99864334924824
H           1.47451826361560   -1.11622323329901    8.57933452688769
H           0.73673240072675   -3.93111032884536    9.54422471121634
H          -0.26068001123937   -2.48522285596848    9.74413548583087
H           0.05216215485081   -3.12908853516613    8.12283263216965
H          -4.79865572729405    1.72434005502649   -1.32142990390295
H          -4.63365940538692    5.63709640541388   -0.14503448886161
H          -6.26980984168797    6.03526514317877   -0.75419161388107
H          -5.68978620646234    4.63974685559754    1.90986795674345
H          -6.12603402043996    6.34691590225600    1.72590438069411
H          -7.28601254412729    5.08626453683865    1.28994172683483
