# ORCA input file
# SCF done       -177.371657664847          0.000569711824
! wb97x-d3 def2-SVP def2/J RIJCOSX Grid4 TightSCF
%maxcore 5000
%tddft
    Mode sTDA
    Ethresh 5.0
    maxcore 5000
end

%pal
  nprocs 6
  end
* xyz 0 1
   C       -0.20036         2.86135         0.92530
   C       -0.49473         4.11251         1.41809
   C       -0.15652         5.37114         0.78793
   C       -0.67424         6.44133         1.64391
   C       -1.30834         5.86278         2.75633
   C       -1.22217         4.39055         2.65665
   O       -1.68141         3.58982         3.45209
   C        0.52457         5.56486        -0.38669
   C        0.81148         6.83322        -0.93501
   N        1.07595         7.83105        -1.43674
   C        1.03814         4.54972        -1.22046
   N        1.48784         3.78750        -1.95310
   C       -0.62588         7.82050         1.51923
   C       -1.21537         8.58635         2.51514
   C       -1.84207         8.00210         3.61550
   C       -1.89518         6.62344         3.74741
   F       -1.17855         9.91940         2.41239
   F       -2.39754         8.77932         4.55299
   C       -0.46469         1.59541         1.45554
   S       -1.24427         1.22855         2.97506
   C       -1.06779        -0.46365         2.68376
   C       -0.43598        -0.73526         1.45490
   C       -0.09774         0.42370         0.78001
   C       -1.48700        -1.44330         3.60310
   C       -2.09827        -1.20543         4.83426
   C       -2.32188        -2.38849         5.56574
   C       -1.90511        -3.52897         4.87589
   S       -1.23779        -3.13439         3.32022
   O       -2.39056         0.06735         5.24241
   O       -2.92635        -2.53405         6.76082
   C       -3.66680         0.56782         4.83342
   C       -4.81101         0.05122         5.69513
   C       -2.56962        -1.64497         7.81981
   C       -1.35936        -2.17425         8.57692
   C       -1.96844        -4.84253         5.38443
   S       -2.53097        -5.13415         6.99290
   C       -2.21911        -6.84320         6.81637
   C       -1.68527        -7.12933         5.53026
   C       -1.54816        -5.99866         4.73746
   O       -1.35831        -8.39614         5.24893
   C       -0.97482        -8.73643         3.92572
   C       -2.16779        -8.79028         2.97934
   C       -2.48228        -7.85743         7.73081
   C       -2.94564        -7.78124         9.02756
   C       -3.25274        -8.90870         9.87659
   C       -3.58130        -8.38112        11.20359
   C       -3.50321        -6.97923        11.16105
   C       -3.11700        -6.55171         9.79789
   O       -2.95715        -5.40015         9.43111
   C       -3.28261       -10.23522         9.52716
   C       -3.59372       -11.27991        10.42218
   N       -3.83257       -12.17599        11.09906
   C       -3.03428       -10.75651         8.23987
   N       -2.86671       -11.27392         7.22782
   C       -3.93280        -9.01596        12.38377
   C       -4.19717        -8.22714        13.49439
   C       -4.11687        -6.83646        13.44172
   C       -3.76590        -6.19391        12.26503
   F       -4.53763        -8.82187        14.64454
   F       -4.38167        -6.11338        14.53830
   O       -0.27190        -2.02470         1.10100
   C        0.52022        -2.32613        -0.03743
   C        2.00918        -2.14982         0.23247
   H        0.31677         2.82632        -0.02560
   H       -0.15462         8.32279         0.69063
   H       -2.37785         6.16749         4.59697
   H        0.39542         0.46307        -0.17477
   H       -3.56907         1.65176         4.91963
   H       -3.84311         0.31223         3.78145
   H       -4.67239         0.34979         6.73091
   H       -4.87258        -1.03410         5.64949
   H       -5.74667         0.46838         5.33300
   H       -2.37577        -0.64301         7.42847
   H       -3.44497        -1.62526         8.47256
   H       -1.12412        -1.50695         9.40119
   H       -0.49636        -2.23513         7.91669
   H       -1.57810        -3.16506         8.96648
   H       -1.15883        -5.97481         3.73553
   H       -0.21179        -8.03947         3.55999
   H       -0.52903        -9.72886         4.02516
   H       -2.63459        -7.81239         2.88604
   H       -1.84006        -9.12006         1.99777
   H       -2.90488        -9.49242         3.36023
   H       -2.27535        -8.84500         7.33609
   H       -4.00793       -10.08666        12.47824
   H       -3.70353        -5.11846        12.21946
   H        0.29499        -3.37391        -0.24975
   H        0.20114        -1.71728        -0.89092
   H        2.30637        -2.76627         1.07700
   H        2.57646        -2.45165        -0.64277
   H        2.24318        -1.11291         0.46163
*
