138
 SCF done       -242.080527052235          0.000425851894
C          -0.89496972610571   -0.24261290143606   -0.38009002590699
C          -1.26680530607350    0.74647304033710    0.58030020188658
C          -0.54069417195171    0.85567888005673    1.76843862872189
C           0.48978298506236   -0.02767618427401    1.98248855675785
C           0.85598984218199   -1.02110528796856    1.02478568165721
C           0.15672196178351   -1.10453384974985   -0.18107267355409
S           1.43736051205032   -0.12560344356048    3.45595199519952
C           2.26749434905345   -1.50141925375680    2.81391085449412
C           1.88871476605936   -1.84056440480300    1.52592149417453
C           3.18811847888426   -2.45980333850757    3.29523919903653
C           3.38309485454393   -3.43782484421574    2.30616461606347
C           2.61118047306246   -3.08123096509982    1.05315355164082
C           1.57512451091633   -4.12135255258539    0.66306625636953
C           3.62090484998868   -2.82269001920451   -0.05173421188172
C           0.86564522676329   -4.79231078048813    1.65010163357616
C          -0.12923975933600   -5.68984215480955    1.31152204387589
C          -0.44585612394064   -5.93574499675400   -0.01805738743586
C           0.26310986114023   -5.25753015069412   -1.00052760109117
C           1.26028744235754   -4.35988249691492   -0.66771492281576
C           4.35058493817624   -3.89328175305562   -0.55711184901423
C           5.30328102332405   -3.69080799898826   -1.53538146012480
C           5.55716371674689   -2.41768757338184   -2.03247780674816
C           4.82294894995448   -1.35488268853681   -1.52646563359027
C           3.86798547996514   -1.55033618252702   -0.54362145828841
C          -1.56445809464343   -6.86602524647884   -0.38697157002471
C          -2.87272734094721   -6.08754938180646   -0.54241377902349
C           6.56482746442438   -2.20953517523451   -3.12541014268055
C           5.91297342824933   -2.40062676133698   -4.49654002121029
S           4.03872393556980   -2.79562336382910    4.73222699325454
C           4.65290501360160   -4.29989082104888    4.02675306899370
C           4.20703599109776   -4.46487760569014    2.71498387884425
C           5.44833830534238   -5.08775715046211    4.86980735940817
C           5.98511044856425   -6.34396894431659    4.71572174121108
C           5.82468204812080   -7.28359194790877    3.58876925237550
C           6.44392082239459   -8.55136983823314    4.03619404076154
C           6.98967721829626   -8.38768439773894    5.31811664515417
C           6.76215752172567   -7.00794359023289    5.74889313803352
O           5.30556119582089   -7.10922016963888    2.50522997930255
C           7.24935027332838   -6.46735397642498    6.91035692489517
C           7.11357187637934   -5.12822910645631    7.33660153159070
C           8.00274922801331   -7.18962104542408    7.86130174838350
N           7.07106422320439   -4.06185665548923    7.76153236891466
N           8.61395578601267   -7.71587019531966    8.67776598906992
C           6.50490313403203   -9.75144762155293    3.35597666055552
C           7.12640550393119  -10.81617695300372    3.98721726326247
C           7.66759266243551  -10.66578262154804    5.26426611473990
C           7.61011319211913   -9.45813683225562    5.94391898841720
S          -1.96597060349014   -0.27452665299864   -1.76900236301067
C          -2.91576610466155    0.97803187157884   -1.04800880250179
C          -2.42949042242810    1.43052995889349    0.16770934469499
C          -4.12606431217699    1.64561061461663   -1.34354621271425
C          -4.39984370944897    2.55930987572104   -0.31579607811759
C          -3.30021161469093    2.53485116797357    0.72200290096374
C          -3.91101914523409    2.25764971002745    2.08034320163033
C          -2.47549900924921    3.81814652305705    0.71420712054816
C          -3.88040687968439    0.99799716393375    2.65929800573011
C          -4.46765350200947    0.78177543298224    3.89359780114782
C          -5.11100156250545    1.80829293989619    4.57022028358149
C          -5.15579617351304    3.06378469546858    3.97553194479696
C          -4.56713840662915    3.28689514220726    2.74661875506653
C          -1.77183820655598    4.21299227775401    1.84415702564755
C          -1.00251397006134    5.36131318366793    1.82477108690421
C          -0.91561264225614    6.14433635361759    0.68128369976582
C          -1.61037636694299    5.73607232167787   -0.44940610495935
C          -2.37465180593548    4.58462988946973   -0.43891972555798
C          -5.69671156726823    1.58546656513430    5.93399132235398
C          -4.66186052535014    1.90532092612842    7.01506807195798
C          -0.05630592900887    7.37459920660562    0.65151973480932
C           1.35149259733899    7.03187801811912    0.15979282395450
S          -5.35132678401382    1.60039687365834   -2.52855667938337
C          -6.25607661123809    2.83481062061750   -1.65842784869730
C          -5.59490547279622    3.22462148953682   -0.49226808392577
C          -7.52164474318282    3.19967093490677   -2.14338551123461
C          -8.34907499114557    4.21823088099096   -1.75169962732290
C          -9.80126775386974    4.10669913035293   -2.03500462449751
C         -10.44032880599134    5.13275259986211   -1.17674339335168
C          -9.44504226888870    5.88429639091653   -0.52790598136645
C          -8.13401821681149    5.42082087013227   -0.98664513908859
O         -10.34453948056850    3.31689801581033   -2.77127212782056
C          -6.97207737089727    6.14768358761265   -0.91615732865022
C          -5.80789377923889    5.80730103473169   -1.63241425575368
C          -6.83480400329402    7.35073335981313   -0.19613583897776
N          -4.85521078837779    5.58842485697834   -2.23423138185734
N          -6.66161026094345    8.31558693436623    0.40102568634394
C         -11.78449286748298    5.36889694214087   -0.96924074394096
C         -12.13144594691237    6.37421967384813   -0.08007604854921
C         -11.14900690835979    7.11648706373983    0.57560023740991
C          -9.79787660499833    6.88821360520374    0.35839279258425
F         -11.51401228913852    8.07000457907403    1.44002735007150
F         -13.42327564916419    6.63296639445481    0.15590120777556
F           7.20590036074348  -12.00068813495167    3.36830532095887
F           8.25669375369150  -11.71229512240768    5.85385211277606
H          -0.81098209830560    1.59090137465332    2.50751284846754
H           0.41739785313331   -1.85276806417446   -0.91107116641390
H           1.09287045618835   -4.61263677745463    2.69128814856782
H          -0.66804378666090   -6.20656071203745    2.09278078347371
H           0.03297638718795   -5.43342236301328   -2.04163820258837
H           1.80199223759536   -3.84954911972305   -1.45115375155831
H           4.16289041570041   -4.89039558535400   -0.18862674599936
H           5.86266122590701   -4.53328483455603   -1.91551100515634
H           5.00130604253198   -0.35665380485118   -1.89996699027634
H           3.31561615917056   -0.70291480746408   -0.16515801547271
H          -1.33234672686978   -7.36953071443053   -1.32742504707205
H          -1.68655205048766   -7.62581254571033    0.38711830431020
H          -2.77389204971427   -5.33098759869157   -1.31774671929569
H          -3.68440387555093   -6.75849107432243   -0.81304257982357
H          -3.12966884235802   -5.58930576636534    0.38988253045265
H           6.97910223732175   -1.20159620819088   -3.06086179659394
H           7.38300110027152   -2.92376195989098   -3.01398819061112
H           5.10234087869255   -1.68816303278822   -4.63277474865497
H           6.64304696392763   -2.25168907620353   -5.28840185201153
H           5.50466265802809   -3.40492273787209   -4.58491984716632
H           4.47852336275130   -5.32313628307368    2.12995248894911
H           5.63293271177286   -4.61806382192715    5.82876136658079
H           6.08258737878399   -9.86099345721267    2.36986463568531
H           8.04266382396594   -9.39790622187838    6.92873269698583
H          -3.39340852706201    0.17833277300989    2.15207968825355
H          -4.42529679155257   -0.20375749794852    4.33474008700316
H          -5.65637887755354    3.87642167174963    4.48212745355044
H          -4.59851911090616    4.27301349366218    2.30556668610596
H          -1.84109648035070    3.63560419836105    2.75472972877610
H          -0.46834866853174    5.65651042682130    2.71666297539931
H          -1.56323120779747    6.32790756500306   -1.35138708800100
H          -2.90843286059726    4.30065682505625   -1.33276679109497
H          -6.56970524342293    2.22641142216872    6.07145523364223
H          -6.01493804814791    0.54623864262384    6.03611082771026
H          -4.33958206681628    2.94115387973854    6.93590450287342
H          -5.08483481709840    1.74795286094855    8.00419856339418
H          -3.78887971755656    1.26586731456522    6.90454712076864
H          -0.49928711452038    8.11663331834850   -0.01532145738148
H           0.00685159729428    7.80726679178032    1.65180270751302
H           1.30997038998283    6.61111643389816   -0.84235238115665
H           1.97330845974523    7.92359366164870    0.13694978715414
H           1.81549973793330    6.30111843164365    0.81872206333492
H          -6.01343478115873    3.91971040890964    0.21197928361711
H          -7.95995910200463    2.52552487610408   -2.87333062210862
H         -12.54300748496088    4.79463306908233   -1.47675563796417
H          -9.07401737317032    7.48575616546943    0.88846833885232
