138
 SCF done       -233.128564566485          0.000880221058
C          -0.54115477760215   -0.74966735922575   -0.70221635704061
C          -0.92148259124427    0.39508437978940    0.05863351429054
C          -0.12348037067749    0.79365519214178    1.13365106486725
C           0.95750478767382    0.01724541303608    1.47778010856893
C           1.33695873601114   -1.12793863808752    0.71741805876580
C           0.58944847486636   -1.47491960193856   -0.41038050521721
Se          2.00512916085520    0.23924443431009    3.04388178829915
C           2.84411340721614   -1.35028086658260    2.52343953074473
C           2.40090620130939   -1.84488301257069    1.30795625795597
C           3.73876575653838   -2.28662914625354    3.09577867256392
C           3.85374865141969   -3.39708068540459    2.24620646002486
C           3.07020776402625   -3.16079824928677    0.97397551412746
C           1.97683841023373   -4.18264849825696    0.71766266309139
C           4.06625878917885   -3.05602168872265   -0.16852034506264
C           1.13917807050485   -4.55129825815955    1.76253652882946
C           0.04263460840023   -5.35940336432992    1.53147603743854
C          -0.24775024110140   -5.81774683150091    0.25285403136411
C           0.60936884060931   -5.47079037087444   -0.78230328700537
C           1.70750091512277   -4.66135659329725   -0.55720108424666
C           4.80986574650572   -4.17708174210973   -0.52107596091214
C           5.73960743809773   -4.10902461536743   -1.53970743922152
C           5.95379415021801   -2.92395749329970   -2.23332786177669
C           5.21019534388812   -1.80864833316288   -1.87527479040021
C           4.27741691592920   -1.86965067804687   -0.85475078131577
C          -1.49911431239404   -6.59783652863494   -0.02447961636285
C          -2.62836086735658   -5.64230575869548   -0.41839967407454
C           6.99862126776239   -2.83961997882732   -3.30782449869267
C           8.34407133162353   -2.42246613151661   -2.71021856242962
S           4.60992111927703   -2.47642530633679    4.54857097103063
C           5.12995089164368   -4.09029705096875    4.03742910255906
C           4.63517423947657   -4.40452293483978    2.77224432086100
C           5.90405509128119   -4.80481134371079    4.96337856273689
C           6.42736100978952   -6.07481615355082    4.93910462995070
C           6.35414812274005   -7.08711520026647    3.86321944561067
C           7.04718552624002   -8.27943806345836    4.38638719492920
C           7.52832226567810   -8.02225950867268    5.67944882160182
C           7.16619053890987   -6.65276101131514    6.04943829204282
O           5.85056888636143   -7.00171621239909    2.76019041289096
C           7.48482681717219   -6.06543207144963    7.24645379264652
C           7.16393620900501   -4.75504420584830    7.66184481947308
C           8.20987198330132   -6.70522890403055    8.27554344524937
N           6.95277797668421   -3.71416864602272    8.10034477043337
N           8.78839306783380   -7.15320245702657    9.16013186521252
C           7.23726127669093   -9.50133584169483    3.76921425589777
C           7.92044443522664  -10.49122963190357    4.45605170850499
C           8.39645026726676  -10.23695764596914    5.73740835617192
C           8.21260984501147   -9.01007696297630    6.36794959266926
Se         -1.82116874129313   -1.21295227068337   -2.02353058517505
C          -2.82183143692603    0.20880816480839   -1.33238717531827
C          -2.17368420475080    0.91749432215006   -0.33443804098731
C          -4.14584292427801    0.69641252309577   -1.44914146401291
C          -4.35108239750442    1.71332311674892   -0.50513496385495
C          -3.06052245007620    2.00848019048065    0.22737533574390
C          -3.13898402309559    1.80897123493169    1.73030381369991
C          -2.61569131302046    3.40687776122216   -0.16587952812783
C          -3.74758014799375    0.66365941469022    2.22742409881636
C          -3.69843985632499    0.37212341022672    3.57698874085659
C          -3.03922348172304    1.21352769662478    4.46392413740666
C          -2.46013760126227    2.37278979544165    3.96637419253222
C          -2.50506465615714    2.66902711866690    2.61655622528090
C          -3.39239120529917    4.49534850021731    0.21641773504106
C          -3.03094515854793    5.77677430465840   -0.14949028136551
C          -1.89050985607072    6.00786703995422   -0.90961649542185
C          -1.11802265630402    4.91811155244623   -1.28451204821716
C          -1.47493203165688    3.63104250438020   -0.92179959042008
C          -2.87974549194860    0.84336933998008    5.90924048231685
C          -1.56266604080847    0.08872587163830    6.10765859038658
C          -1.47852532771132    7.40536615016126   -1.27125306565317
C          -0.58683955468559    7.99960256508620   -0.17892703654602
S          -5.55812182555135    0.31421544577522   -2.32332506670686
C          -6.46995663063218    1.51235604262005   -1.39195748950656
C          -5.65143599645427    2.17351758560706   -0.47723934942333
C          -7.84060338487480    1.59395459953498   -1.67949199746591
C          -8.85944982008446    2.30735175489981   -1.09763586775963
C          -8.80898216274246    3.20964032444997    0.07357484322401
C         -10.21289965875875    3.54508478461737    0.37991317515023
C         -11.06333716289898    2.94017320709368   -0.55887718827270
C         -10.24513256170304    2.20411440580642   -1.52366459982826
O          -7.84244307588860    3.62095331675940    0.68473199842374
C         -10.73504125045586    1.57618372566247   -2.63911913619732
C          -9.98128045300084    0.91191581206660   -3.63091782489739
C         -12.10383785038297    1.52288227624493   -2.98110692676391
N          -9.46057071778699    0.36445520208097   -4.49646843342879
N         -13.19546394075979    1.43533049451458   -3.32525889246197
C         -10.70605962026124    4.31818696225231    1.41397001596283
C         -12.07689467944592    4.48646959380216    1.51996698893224
C         -12.91934169062010    3.88099557673325    0.59423481989134
C         -12.43428720461780    3.10507925845599   -0.45426962145655
Cl          9.24323986456968  -11.47937170589025    6.57842238787521
Cl        -14.62206443108943    4.09465644417149    0.74540042597477
H          -0.39818478158885    1.65832348481305    1.71788170975422
H           0.86544256941056   -2.33849083631207   -0.99566965659454
H           1.33904226454534   -4.18958185547980    2.76146363725821
H          -0.60485746978250   -5.62693902108027    2.35415292393046
H           0.40840922314014   -5.82570711075608   -1.78307764778524
H           2.34951349001327   -4.39389511302816   -1.38401804357414
H           4.65148014111605   -5.11040560362515   -0.00291958391408
H           6.30705513748310   -4.99057462987409   -1.80071819353779
H           5.35867774323298   -0.87667336977744   -2.40184638606060
H           3.71301137576495   -0.98496058479316   -0.59975174695324
H          -1.32541864538437   -7.30461163487317   -0.83807060536611
H          -1.79452618605893   -7.16107207909714    0.86248987256972
H          -2.35242979453730   -5.07330912388564   -1.30411142504364
H          -3.53975261311251   -6.19572749662876   -0.63090774657150
H          -2.82731684737003   -4.93972864156085    0.38811321409957
H           7.10751314931137   -3.81026040712121   -3.79563689443846
H           6.69753901965337   -2.10909726338364   -4.06150578088314
H           8.66696119117769   -3.14509525854560   -1.96401085980136
H           9.10278081345693   -2.36177501315482   -3.48683701930303
H           8.25959209894110   -1.45010998121447   -2.22991904963692
H           4.84467804541237   -5.34875124995116    2.30601056289513
H           6.09704507375979   -4.23922421245229    5.86712780301832
H           6.85501134629759   -9.66945055471109    2.77429662966058
H           8.08659273014538  -11.45823577027223    4.00845833854551
H           8.59956281608489   -8.85951419832881    7.36167976105918
H          -4.24916163354993   -0.01261589879696    1.54941775363529
H          -4.16704979351156   -0.52945836189100    3.94470841929403
H          -1.95236900955783    3.04736725482674    4.64095952852624
H          -2.03131432993554    3.56955682741246    2.25319863465577
H          -4.27880033398060    4.33830512051532    0.81181211047495
H          -3.64715222907437    6.61029635999418    0.15523526649202
H          -0.22542599744947    5.07391976771355   -1.87355010500271
H          -0.85582414263404    2.80238046690754   -1.23219232259475
H          -2.87566488371759    1.74348843166559    6.52687861416690
H          -3.71040989757082    0.21152068871195    6.22859630656220
H          -0.72118939531624    0.70557655768435    5.79791013793172
H          -1.43046103455429   -0.17984629316569    7.15288752964253
H          -1.55472437802711   -0.82069633728439    5.51044932193282
H          -0.93252795631058    7.39749927805142   -2.21665182758269
H          -2.36419280794453    8.03198472726015   -1.39273980377219
H           0.30721586697047    7.39374746296627   -0.04890760294529
H          -0.28589493455910    9.01078508078038   -0.44209815435243
H          -1.11954386069398    8.03137592847446    0.76885823339045
H          -6.03846041549923    2.93089434134632    0.17818122891035
H          -8.13544488128902    0.93690944134706   -2.48933867515804
H         -10.02846398408367    4.77293119214544    2.11983028586732
H         -12.49905788658535    5.08066024331687    2.31481218701648
H         -13.12450033930351    2.65397398850062   -1.14726004654067
