# ORCA input file
# SCF done       -233.128564566485          0.000880221058
! wb97x-d3 def2-SVP def2/J RIJCOSX Grid4 TightSCF
%maxcore 5000
%tddft
    Mode sTDA
    Ethresh 5.0
    maxcore 5000
end

%pal
  nprocs 6
  end
* xyz 0 1
   C       -0.54115        -0.74967        -0.70222
   C       -0.92148         0.39508         0.05863
   C       -0.12348         0.79366         1.13365
   C        0.95750         0.01725         1.47778
   C        1.33696        -1.12794         0.71742
   C        0.58945        -1.47492        -0.41038
  Se        2.00513         0.23924         3.04388
   C        2.84411        -1.35028         2.52344
   C        2.40091        -1.84488         1.30796
   C        3.73877        -2.28663         3.09578
   C        3.85375        -3.39708         2.24621
   C        3.07021        -3.16080         0.97398
   C        1.97684        -4.18265         0.71766
   C        4.06626        -3.05602        -0.16852
   C        1.13918        -4.55130         1.76254
   C        0.04263        -5.35940         1.53148
   C       -0.24775        -5.81775         0.25285
   C        0.60937        -5.47079        -0.78230
   C        1.70750        -4.66136        -0.55720
   C        4.80987        -4.17708        -0.52108
   C        5.73961        -4.10902        -1.53971
   C        5.95379        -2.92396        -2.23333
   C        5.21020        -1.80865        -1.87527
   C        4.27742        -1.86965        -0.85475
   C       -1.49911        -6.59784        -0.02448
   C       -2.62836        -5.64231        -0.41840
   C        6.99862        -2.83962        -3.30782
   C        8.34407        -2.42247        -2.71022
   S        4.60992        -2.47643         4.54857
   C        5.12995        -4.09030         4.03743
   C        4.63517        -4.40452         2.77224
   C        5.90406        -4.80481         4.96338
   C        6.42736        -6.07482         4.93910
   C        6.35415        -7.08712         3.86322
   C        7.04719        -8.27944         4.38639
   C        7.52832        -8.02226         5.67945
   C        7.16619        -6.65276         6.04944
   O        5.85057        -7.00172         2.76019
   C        7.48483        -6.06543         7.24645
   C        7.16394        -4.75504         7.66184
   C        8.20987        -6.70523         8.27554
   N        6.95278        -3.71417         8.10034
   N        8.78839        -7.15320         9.16013
   C        7.23726        -9.50134         3.76921
   C        7.92044       -10.49123         4.45605
   C        8.39645       -10.23696         5.73741
   C        8.21261        -9.01008         6.36795
  Se       -1.82117        -1.21295        -2.02353
   C       -2.82183         0.20881        -1.33239
   C       -2.17368         0.91749        -0.33444
   C       -4.14584         0.69641        -1.44914
   C       -4.35108         1.71332        -0.50513
   C       -3.06052         2.00848         0.22738
   C       -3.13898         1.80897         1.73030
   C       -2.61569         3.40688        -0.16588
   C       -3.74758         0.66366         2.22742
   C       -3.69844         0.37212         3.57699
   C       -3.03922         1.21353         4.46392
   C       -2.46014         2.37279         3.96637
   C       -2.50506         2.66903         2.61656
   C       -3.39239         4.49535         0.21642
   C       -3.03095         5.77677        -0.14949
   C       -1.89051         6.00787        -0.90962
   C       -1.11802         4.91811        -1.28451
   C       -1.47493         3.63104        -0.92180
   C       -2.87975         0.84337         5.90924
   C       -1.56267         0.08873         6.10766
   C       -1.47853         7.40537        -1.27125
   C       -0.58684         7.99960        -0.17893
   S       -5.55812         0.31422        -2.32333
   C       -6.46996         1.51236        -1.39196
   C       -5.65144         2.17352        -0.47724
   C       -7.84060         1.59395        -1.67949
   C       -8.85945         2.30735        -1.09764
   C       -8.80898         3.20964         0.07357
   C      -10.21290         3.54508         0.37991
   C      -11.06334         2.94017        -0.55888
   C      -10.24513         2.20411        -1.52366
   O       -7.84244         3.62095         0.68473
   C      -10.73504         1.57618        -2.63912
   C       -9.98128         0.91192        -3.63092
   C      -12.10384         1.52288        -2.98111
   N       -9.46057         0.36446        -4.49647
   N      -13.19546         1.43533        -3.32526
   C      -10.70606         4.31819         1.41397
   C      -12.07689         4.48647         1.51997
   C      -12.91934         3.88100         0.59423
   C      -12.43429         3.10508        -0.45427
  Cl        9.24324       -11.47937         6.57842
  Cl      -14.62206         4.09466         0.74540
   H       -0.39818         1.65832         1.71788
   H        0.86544        -2.33849        -0.99567
   H        1.33904        -4.18958         2.76146
   H       -0.60486        -5.62694         2.35415
   H        0.40841        -5.82571        -1.78308
   H        2.34951        -4.39390        -1.38402
   H        4.65148        -5.11041        -0.00292
   H        6.30706        -4.99057        -1.80072
   H        5.35868        -0.87667        -2.40185
   H        3.71301        -0.98496        -0.59975
   H       -1.32542        -7.30461        -0.83807
   H       -1.79453        -7.16107         0.86249
   H       -2.35243        -5.07331        -1.30411
   H       -3.53975        -6.19573        -0.63091
   H       -2.82732        -4.93973         0.38811
   H        7.10751        -3.81026        -3.79564
   H        6.69754        -2.10910        -4.06151
   H        8.66696        -3.14510        -1.96401
   H        9.10278        -2.36178        -3.48684
   H        8.25959        -1.45011        -2.22992
   H        4.84468        -5.34875         2.30601
   H        6.09705        -4.23922         5.86713
   H        6.85501        -9.66945         2.77430
   H        8.08659       -11.45824         4.00846
   H        8.59956        -8.85951         7.36168
   H       -4.24916        -0.01262         1.54942
   H       -4.16705        -0.52946         3.94471
   H       -1.95237         3.04737         4.64096
   H       -2.03131         3.56956         2.25320
   H       -4.27880         4.33831         0.81181
   H       -3.64715         6.61030         0.15524
   H       -0.22543         5.07392        -1.87355
   H       -0.85582         2.80238        -1.23219
   H       -2.87566         1.74349         6.52688
   H       -3.71041         0.21152         6.22860
   H       -0.72119         0.70558         5.79791
   H       -1.43046        -0.17985         7.15289
   H       -1.55472        -0.82070         5.51045
   H       -0.93253         7.39750        -2.21665
   H       -2.36419         8.03198        -1.39274
   H        0.30722         7.39375        -0.04891
   H       -0.28589         9.01079        -0.44210
   H       -1.11954         8.03138         0.76886
   H       -6.03846         2.93089         0.17818
   H       -8.13544         0.93691        -2.48934
   H      -10.02846         4.77293         2.11983
   H      -12.49906         5.08066         2.31481
   H      -13.12450         2.65397        -1.14726
*
