170
 SCF done       -269.864172522541          0.000553649371
C          -1.08144520452097   -0.74138528570283   -0.68038495672567
C          -1.41024151308033    0.42257960021341    0.07474673078566
C          -0.43972760761892    0.93323111500233    0.95247409002280
C           0.73285139931279    0.20992615477118    1.08959128048403
C           1.05122716918642   -0.97440968892724    0.36145331047460
C           0.11606445512448   -1.43609006040261   -0.58310736319096
S           1.94222080146733    0.63988102639168    2.28270761468432
C           2.80665958225876   -0.79776151142699    1.88093680566633
C           2.26863652945104   -1.52527149267643    0.83011908314398
C           3.87613481531244   -1.51537060975520    2.46121176746939
C           4.02320613758868   -2.73187517265630    1.78424948109251
C           3.09057565123253   -2.77728597791548    0.58577253939477
C           2.20782576736893   -4.00972306065301    0.60659086889989
C           4.01160155378850   -2.64406609087599   -0.61814996696723
C           1.33744354975323   -4.16200231966476    1.68146192914181
C           0.49948331099479   -5.25535963004977    1.76141435780449
C           0.51148509722523   -6.23504556784832    0.77597957951921
C           1.38364520978919   -6.08086105008205   -0.29069306774706
C           2.22088331479997   -4.98306710724344   -0.37868544673077
C           4.92991437229790   -3.65049652657844   -0.89964163324071
C           5.80265771108866   -3.52942863496554   -1.96358161737104
C           5.80375639295529   -2.39293550540742   -2.76303537403682
C           4.90585923224457   -1.37971938473443   -2.46154513726512
C           4.02498005782413   -1.49865992897893   -1.40144730304194
C          -0.43343444910177   -7.39996516034508    0.84257567567766
C          -1.78790377107414   -7.02678428281360    0.23684768982942
C           6.72650595831251   -2.28285845991235   -3.94215431610687
C           6.09850323784541   -2.93032198337006   -5.17816525970827
S           4.92447933778530   -1.37139132179094    3.79751652309684
C           5.56342613088714   -2.99074361020636    3.47838129350199
C           4.97118668359144   -3.55857701973701    2.35236077859915
C           6.52507779319874   -3.45887318805450    4.38828318811437
C           7.14911249236170   -4.67346262362347    4.51680407910581
C           6.95142353198965   -5.91131645271389    3.72706372541157
C           7.70593533692664   -6.95959236795339    4.43506265179780
C           8.37314994759496   -6.40594904673690    5.53912184217881
C           8.09454844654333   -4.97151399382246    5.58020266180072
O           6.31550664347411   -6.07297509655598    2.70339417386626
C           8.67746738238797   -4.08886882029726    6.45269367278654
C           8.49509703588836   -2.68976127634426    6.48191009038668
C           9.59840142918918   -4.46028036495470    7.45518351398488
N           8.42936263290921   -1.54667849623106    6.57939201660100
N          10.34659069056126   -4.68594787624735    8.29660955292251
C           7.79836954024822   -8.30649103920831    4.14085929475574
C           8.56431324764193   -9.10946732243173    4.96968968126058
C           9.22789935186864   -8.58171127005557    6.07586921811560
C           9.13250291373712   -7.22069979823998    6.36150224754096
S          -2.35538261307302   -1.22738328879120   -1.78271594250636
C          -3.32366307477106    0.07691212501730   -1.20288909027899
C          -2.72406693132042    0.85618632777475   -0.22754911333452
C          -4.62280272708564    0.56335480567811   -1.47256482555003
C          -4.86567856697914    1.67639461954890   -0.66035178480413
C          -3.67597348802831    1.93754267811952    0.24643310010075
C          -4.16407141864217    1.72153903357846    1.66886562822514
C          -3.09010285826280    3.31189544966462   -0.03652619185344
C          -3.76076476177260    0.62943229552455    2.42389558355696
C          -4.23479145102130    0.44786889073517    3.71101161074525
C          -5.12569940270281    1.34622815624560    4.27855291884695
C          -5.55827296771001    2.41680980984381    3.50624341284612
C          -5.09405714701379    2.59849121011003    2.21814998982330
C          -2.94538117692464    4.29669608538202    0.92615738338361
C          -2.41764750874728    5.53127760099086    0.59207290306438
C          -2.01074276776932    5.81173062719850   -0.70319976501452
C          -2.14708779493723    4.81730694112175   -1.66411912286013
C          -2.68274281236017    3.58799051077730   -1.33793796094011
C          -5.65069508125572    1.13680172937164    5.66946699463429
C          -6.90429065782536    0.26037252484610    5.64211681493845
C          -1.38362711306518    7.13138564437157   -1.04821197952251
C           0.13812311443457    7.04738980567440   -0.91303306837831
S          -5.93823861871976    0.18385320313762   -2.48848452673870
C          -6.86082313896129    1.52978987985934   -1.80518981055919
C          -6.11981767829121    2.22247796377274   -0.85140209181683
C          -8.16491265064214    1.69808133464199   -2.29977470562600
C          -9.18874895861843    2.51892485091397   -1.90259072090139
C          -9.25855328574799    3.41802297009896   -0.72632589261788
C         -10.67233967201105    3.81779144423343   -0.61734760298340
C         -11.40713047920705    3.27707122671227   -1.68462447818864
C         -10.49427289100554    2.52382354620517   -2.54165567393646
O          -8.36802605356934    3.77221223324227    0.02123655976972
C         -10.82420326214466    1.98914023032185   -3.75995043119863
C          -9.94123189924017    1.34658298334241   -4.65392804856147
C         -12.11591685799811    2.04899801307089   -4.32418632390683
N          -9.29689941893303    0.83135156554223   -5.45357973503025
N         -13.14205618438393    2.05397515305348   -4.83976490195276
C         -11.27903470405892    4.59404506602650    0.35128900366031
C         -12.64136633567133    4.82433125336521    0.25147017585781
C         -13.39066871313635    4.28900489444127   -0.79446809423312
C         -12.76869939735946    3.51101482905097   -1.77002847734802
C         -14.86610313623278    4.52583402496664   -0.86101482033372
C          10.02369658831343   -9.47761861858901    6.97128395625761
C           0.30248963718524   -2.58180133367146   -1.46534410182291
C          -0.55762319534292    2.16849098324497    1.72970692046582
S          -1.24977705958182    2.17908486118446    3.32193140542577
C          -0.79834872274092    3.83573257438633    3.55535847691089
C          -0.14704753442832    4.32177769772838    2.46656261014232
C           0.00410778349557    3.37194264918710    1.43326918241252
S           1.49345052254214   -2.56084315625091   -2.72789768766615
C           0.90952604628268   -4.05917936087775   -3.36956047261938
C          -0.13870010924166   -4.52641198048558   -2.64018103903492
C          -0.49857114939111   -3.68084422184261   -1.57140879337153
C           1.57658669118965   -4.67102650363293   -4.55308717598138
C           2.96691241827321   -5.20437016376875   -4.20190392765762
C          -1.17417470047791    4.53734771968057    4.81517801874126
C          -2.68730781527542    4.74376646313333    4.91161065494320
H           1.31721832149949   -3.41407222004923    2.46211425040868
H          -0.17099572672637   -5.35343521132806    2.60355259407080
H           1.40993632656172   -6.82943682740576   -1.06988225479997
H           2.87258463083384   -4.88488831410635   -1.23157509048663
H           4.96959674852160   -4.53416747255369   -0.28187214374521
H           6.50241082922352   -4.32707145802803   -2.16845768724603
H           4.89363811231511   -0.48055893582240   -3.06041369390009
H           3.34101539184866   -0.68950831422718   -1.19392162870095
H          -0.01569464824569   -8.24749488203113    0.29582359981193
H          -0.57625387339018   -7.70124488654363    1.88247472333655
H          -1.66936465821875   -6.73993993264819   -0.80530598152022
H          -2.47416795960234   -7.86884641618504    0.28961089026519
H          -2.22579262044721   -6.18881979314638    0.77483853142149
H           6.93226499432667   -1.23155271910214   -4.15216278525007
H           7.67331580767300   -2.77883933522214   -3.71878284650173
H           5.14460486963009   -2.46005088688229   -5.40712279722783
H           6.75484077030878   -2.82241417963377   -6.03848411468036
H           5.92649169003722   -3.99015296072805   -5.00451415056820
H           5.23171520409841   -4.54522237007579    2.01817629432019
H           6.78230211374333   -2.71991881707716    5.13839461357029
H           7.28020341898787   -8.70947015981121    3.28419019885613
H           8.65101643156729  -10.16588601378136    4.76077635236730
H           9.64861431142232   -6.82638289728397    7.22164479303383
H          -3.06259531756736   -0.08756224538633    2.01937533340871
H          -3.89484435541143   -0.40256814058388    4.28424361859518
H          -6.26844952191876    3.12005065909775    3.91701036922296
H          -5.45870106958426    3.43293222270731    1.63991281889582
H          -3.23114258684142    4.10516220153125    1.94785025864393
H          -2.31888199897243    6.28781898010250    1.35757452322197
H          -1.83527501070731    5.01053455415467   -2.68078974184075
H          -2.78629937692848    2.83171221044759   -2.10348427862100
H          -4.88720292517676    0.65451016661628    6.28336515683900
H          -5.89544793039649    2.10020369403934    6.12151741079224
H          -6.67663825190805   -0.71120820417704    5.20928971279215
H          -7.28753718920824    0.11146915468503    6.64895633705387
H          -7.67954131844109    0.72898152591052    5.04000348416588
H          -1.63868656391678    7.40703524464802   -2.07351014227097
H          -1.76246989558060    7.90802049760434   -0.38094538139288
H           0.53618508081597    6.28872477629905   -1.58329617021631
H           0.59667136626227    8.00251818885263   -1.15826621283300
H           0.41273730491144    6.78088729818549    0.10507319922293
H          -6.51985674573880    3.07902935179563   -0.34332313141495
H          -8.39632950962456    1.01915748768750   -3.11283790090220
H         -10.69419634988732    5.00418605902065    1.16028377090939
H         -13.13777070370352    5.42823289217290    0.99715433408236
H         -13.36023021885069    3.09952844630062   -2.57175627435397
H         -15.22826138949241    4.43753303224405   -1.88199078245873
H         -15.38517606163223    3.78334323801362   -0.25376542789941
H         -15.12020611303197    5.51016901533523   -0.47480407290197
H          10.75573964011508   -8.90961600409911    7.53927551632976
H           9.35921169164744   -9.97594011338950    7.67800817578725
H          10.53523434475735  -10.24619147763086    6.39624182070507
H           0.22600848857349    5.32834120796891    2.40281910031743
H           0.49375247606211    3.57637109145606    0.49778011994321
H          -0.65136876603405   -5.44386715867148   -2.86840339590764
H          -1.29732474990574   -3.89304039197184   -0.88376426384459
H           0.95200862816897   -5.48423070314656   -4.92867886151867
H           1.67373099771624   -3.92240355660733   -5.34359830934965
H           2.89367188720417   -5.99740783637145   -3.46110248633927
H           3.45048980188558   -5.60474458037166   -5.08967804233915
H           3.58528693946137   -4.40524077704100   -3.79738745026198
H          -0.84033712690406    3.94988334881538    5.67434391685336
H          -0.66577753988312    5.50338890674066    4.84474850156519
H          -3.20297160215164    3.78629438013600    4.86313039051369
H          -2.94195240681984    5.23004163899897    5.85007251546202
H          -3.03890272575096    5.36775444790486    4.09289378096396
