# ORCA input file
# SCF done       -269.864172522541          0.000553649371
! wb97x-d3 def2-SVP def2/J RIJCOSX Grid4 TightSCF
%maxcore 5000
%tddft
    Mode sTDA
    Ethresh 5.0
    maxcore 5000
end

%pal
  nprocs 6
  end
* xyz 0 1
   C       -1.08145        -0.74139        -0.68038
   C       -1.41024         0.42258         0.07475
   C       -0.43973         0.93323         0.95247
   C        0.73285         0.20993         1.08959
   C        1.05123        -0.97441         0.36145
   C        0.11606        -1.43609        -0.58311
   S        1.94222         0.63988         2.28271
   C        2.80666        -0.79776         1.88094
   C        2.26864        -1.52527         0.83012
   C        3.87613        -1.51537         2.46121
   C        4.02321        -2.73188         1.78425
   C        3.09058        -2.77729         0.58577
   C        2.20783        -4.00972         0.60659
   C        4.01160        -2.64407        -0.61815
   C        1.33744        -4.16200         1.68146
   C        0.49948        -5.25536         1.76141
   C        0.51149        -6.23505         0.77598
   C        1.38365        -6.08086        -0.29069
   C        2.22088        -4.98307        -0.37869
   C        4.92991        -3.65050        -0.89964
   C        5.80266        -3.52943        -1.96358
   C        5.80376        -2.39294        -2.76304
   C        4.90586        -1.37972        -2.46155
   C        4.02498        -1.49866        -1.40145
   C       -0.43343        -7.39997         0.84258
   C       -1.78790        -7.02678         0.23685
   C        6.72651        -2.28286        -3.94215
   C        6.09850        -2.93032        -5.17817
   S        4.92448        -1.37139         3.79752
   C        5.56343        -2.99074         3.47838
   C        4.97119        -3.55858         2.35236
   C        6.52508        -3.45887         4.38828
   C        7.14911        -4.67346         4.51680
   C        6.95142        -5.91132         3.72706
   C        7.70594        -6.95959         4.43506
   C        8.37315        -6.40595         5.53912
   C        8.09455        -4.97151         5.58020
   O        6.31551        -6.07298         2.70339
   C        8.67747        -4.08887         6.45269
   C        8.49510        -2.68976         6.48191
   C        9.59840        -4.46028         7.45518
   N        8.42936        -1.54668         6.57939
   N       10.34659        -4.68595         8.29661
   C        7.79837        -8.30649         4.14086
   C        8.56431        -9.10947         4.96969
   C        9.22790        -8.58171         6.07587
   C        9.13250        -7.22070         6.36150
   S       -2.35538        -1.22738        -1.78272
   C       -3.32366         0.07691        -1.20289
   C       -2.72407         0.85619        -0.22755
   C       -4.62280         0.56335        -1.47256
   C       -4.86568         1.67639        -0.66035
   C       -3.67597         1.93754         0.24643
   C       -4.16407         1.72154         1.66887
   C       -3.09010         3.31190        -0.03653
   C       -3.76076         0.62943         2.42390
   C       -4.23479         0.44787         3.71101
   C       -5.12570         1.34623         4.27855
   C       -5.55827         2.41681         3.50624
   C       -5.09406         2.59849         2.21815
   C       -2.94538         4.29670         0.92616
   C       -2.41765         5.53128         0.59207
   C       -2.01074         5.81173        -0.70320
   C       -2.14709         4.81731        -1.66412
   C       -2.68274         3.58799        -1.33794
   C       -5.65070         1.13680         5.66947
   C       -6.90429         0.26037         5.64212
   C       -1.38363         7.13139        -1.04821
   C        0.13812         7.04739        -0.91303
   S       -5.93824         0.18385        -2.48848
   C       -6.86082         1.52979        -1.80519
   C       -6.11982         2.22248        -0.85140
   C       -8.16491         1.69808        -2.29977
   C       -9.18875         2.51892        -1.90259
   C       -9.25855         3.41802        -0.72633
   C      -10.67234         3.81779        -0.61735
   C      -11.40713         3.27707        -1.68462
   C      -10.49427         2.52382        -2.54166
   O       -8.36803         3.77221         0.02124
   C      -10.82420         1.98914        -3.75995
   C       -9.94123         1.34658        -4.65393
   C      -12.11592         2.04900        -4.32419
   N       -9.29690         0.83135        -5.45358
   N      -13.14206         2.05398        -4.83976
   C      -11.27903         4.59405         0.35129
   C      -12.64137         4.82433         0.25147
   C      -13.39067         4.28900        -0.79447
   C      -12.76870         3.51101        -1.77003
   C      -14.86610         4.52583        -0.86101
   C       10.02370        -9.47762         6.97128
   C        0.30249        -2.58180        -1.46534
   C       -0.55762         2.16849         1.72971
   S       -1.24978         2.17908         3.32193
   C       -0.79835         3.83573         3.55536
   C       -0.14705         4.32178         2.46656
   C        0.00411         3.37194         1.43327
   S        1.49345        -2.56084        -2.72790
   C        0.90953        -4.05918        -3.36956
   C       -0.13870        -4.52641        -2.64018
   C       -0.49857        -3.68084        -1.57141
   C        1.57659        -4.67103        -4.55309
   C        2.96691        -5.20437        -4.20190
   C       -1.17417         4.53735         4.81518
   C       -2.68731         4.74377         4.91161
   H        1.31722        -3.41407         2.46211
   H       -0.17100        -5.35344         2.60355
   H        1.40994        -6.82944        -1.06988
   H        2.87258        -4.88489        -1.23158
   H        4.96960        -4.53417        -0.28187
   H        6.50241        -4.32707        -2.16846
   H        4.89364        -0.48056        -3.06041
   H        3.34102        -0.68951        -1.19392
   H       -0.01569        -8.24749         0.29582
   H       -0.57625        -7.70124         1.88247
   H       -1.66936        -6.73994        -0.80531
   H       -2.47417        -7.86885         0.28961
   H       -2.22579        -6.18882         0.77484
   H        6.93226        -1.23155        -4.15216
   H        7.67332        -2.77884        -3.71878
   H        5.14460        -2.46005        -5.40712
   H        6.75484        -2.82241        -6.03848
   H        5.92649        -3.99015        -5.00451
   H        5.23172        -4.54522         2.01818
   H        6.78230        -2.71992         5.13839
   H        7.28020        -8.70947         3.28419
   H        8.65102       -10.16589         4.76078
   H        9.64861        -6.82638         7.22164
   H       -3.06260        -0.08756         2.01938
   H       -3.89484        -0.40257         4.28424
   H       -6.26845         3.12005         3.91701
   H       -5.45870         3.43293         1.63991
   H       -3.23114         4.10516         1.94785
   H       -2.31888         6.28782         1.35757
   H       -1.83528         5.01053        -2.68079
   H       -2.78630         2.83171        -2.10348
   H       -4.88720         0.65451         6.28337
   H       -5.89545         2.10020         6.12152
   H       -6.67664        -0.71121         5.20929
   H       -7.28754         0.11147         6.64896
   H       -7.67954         0.72898         5.04000
   H       -1.63869         7.40704        -2.07351
   H       -1.76247         7.90802        -0.38095
   H        0.53619         6.28872        -1.58330
   H        0.59667         8.00252        -1.15827
   H        0.41274         6.78089         0.10507
   H       -6.51986         3.07903        -0.34332
   H       -8.39633         1.01916        -3.11284
   H      -10.69420         5.00419         1.16028
   H      -13.13777         5.42823         0.99715
   H      -13.36023         3.09953        -2.57176
   H      -15.22826         4.43753        -1.88199
   H      -15.38518         3.78334        -0.25377
   H      -15.12021         5.51017        -0.47480
   H       10.75574        -8.90962         7.53928
   H        9.35921        -9.97594         7.67801
   H       10.53523       -10.24619         6.39624
   H        0.22601         5.32834         2.40282
   H        0.49375         3.57637         0.49778
   H       -0.65137        -5.44387        -2.86840
   H       -1.29732        -3.89304        -0.88376
   H        0.95201        -5.48423        -4.92868
   H        1.67373        -3.92240        -5.34360
   H        2.89367        -5.99741        -3.46110
   H        3.45049        -5.60474        -5.08968
   H        3.58529        -4.40524        -3.79739
   H       -0.84034         3.94988         5.67434
   H       -0.66578         5.50339         4.84475
   H       -3.20297         3.78629         4.86313
   H       -2.94195         5.23004         5.85007
   H       -3.03890         5.36775         4.09289
*
