141
 SCF done       -252.458246303959          0.000302169800
N           2.47304008138127    2.33978724439784    3.68794624092407
C           1.13894153848716    2.52909821772417    4.00947307894098
C           0.15587160820239    1.88873483334268    3.11861055891089
C           0.58421202341466    1.13951131129176    2.00314029578758
C           1.95558199662587    0.96713757269741    1.75252658164481
C           2.95921638900603    1.56647865331089    2.64710976240689
O           4.15269994154306    1.41055670056436    2.48666957073388
O           0.81736766119972    3.18787679108185    4.97614764853335
C          -0.37726481003245    0.57711871145682    1.13092668487920
C           0.06411127757926   -0.26617508678959    0.07875026604030
C           1.42942038063845   -0.35938122155096   -0.17949670340692
C           2.36354539632324    0.25636799580632    0.63712296714653
C          -1.18738228890658    1.96472741907525    3.40511298188273
C          -2.15261243787331    1.40886690047709    2.55164917416940
C          -1.75965780254671    0.85968671987359    1.32005392645923
C          -2.63956789806584    0.57896429546764    0.20198759652322
C          -2.23917744515318   -0.40196467325505   -0.74048784370108
C          -0.93360652718416   -0.95980371207963   -0.71286579697558
C          -3.14943693529876   -0.82712548536823   -1.73682665386332
C          -2.80627522708372   -1.88015574050540   -2.60409978907148
C          -1.59885996464135   -2.52524060417031   -2.44465971250319
C          -0.66075701507166   -2.08722837182460   -1.50195082982955
C          -3.83217624304805    1.29853988500837   -0.03103347421613
C          -4.70186258588970    0.88351300855723   -1.04176020493515
C          -4.39306434299383   -0.18738444213649   -1.85613981681692
C          -5.35729215557735   -0.61308856768872   -2.88274891209110
N          -4.95909181286279   -1.65058453503401   -3.70614308387609
C          -3.75126787840295   -2.32797554455081   -3.63965895157615
O          -3.50355409722963   -3.23861850408937   -4.40305552806790
O          -6.44122669319716   -0.08061681927032   -3.01914677984107
N           8.81110445364224   -1.32476219894941   -2.88141632486974
C           7.54798652722850   -0.99113524625722   -2.41812436534716
C           6.82113349382523   -2.03981511529416   -1.68573381341783
C           7.38957098747250   -3.31372465088187   -1.51890261413003
C           8.65987216635069   -3.60214647292347   -2.05862152749569
C           9.41472282475550   -2.56680602051426   -2.78283921737807
O          10.50439929660086   -2.77426474831651   -3.27703554956189
O           7.08543224344262    0.11500497826763   -2.60975570372895
C           6.69673117153707   -4.31368756764001   -0.79796002415772
C           7.32929421777597   -5.55875547055798   -0.52653230026440
C           8.48143395934078   -5.88097956420387   -1.25593178970203
C           9.15572546254116   -4.88370684027147   -1.97243942606416
C           5.58286320619190   -1.76607252786192   -1.12954025768077
C           4.86559945806031   -2.76332371702947   -0.48938597778661
C           5.37178391545770   -4.05432678817788   -0.36254496622799
C           4.62517282341031   -5.13652989032382    0.24966458827700
C           5.37595807748014   -6.19494837119851    0.82537967503210
C           6.74881464865843   -6.36594715800816    0.52304698025342
C           4.74332423577256   -7.08332152943677    1.72617356316281
C           5.50933215490083   -8.04573479982997    2.40420729087567
C           6.87936833569199   -8.08558324906864    2.23634764042156
C           7.51513404052280   -7.24240748977528    1.31855598002507
C           3.22820267917060   -5.15143120718485    0.37864126334244
C           2.61698045659306   -6.06353925143000    1.24698080958089
C           3.35777510591906   -6.98916996454254    1.94987496857374
C           2.69204976783564   -7.90778713240094    2.88734948091711
N           3.49826940926505   -8.85843020565153    3.49358554044657
C           4.86650926135822   -8.98901973862604    3.33405731681548
O           5.49010479797411   -9.84182362424865    3.93377490750363
O           1.50093570886177   -7.86130103257075    3.11689313062984
C           3.45674573775350    2.96857698810117    4.56495176841233
C           3.78402944949546    2.07700657088951    5.75560706491917
C          -5.91215157468048   -2.09679592781041   -4.71849270626211
C          -6.81306948247385   -3.19727347156511   -4.17325056193185
C           2.84878304696342   -9.77981874592593    4.42184783869240
C           2.83004347973590   -9.21124635255352    5.83467830021227
C           9.54931465930789   -0.28612608601840   -3.59399161355430
C           9.24478174497205   -0.31902745320088   -5.08606404838930
C           0.54003728376042   -2.89385435472540   -1.34080714395928
S           1.00626135425168   -3.47275679062848    0.23272826711793
C           2.36686689834038   -4.31547295963410   -0.44249076970977
C           2.41754357833343   -4.16611994035698   -1.80213046793855
C           1.37162532458485   -3.37955463154534   -2.31194522750943
O           8.85561998422247   -7.19790924005838    1.16343348122417
C           9.69887788459495   -7.91503166963975    2.05204221648393
O          10.99086730980478   -7.48496156262053    1.89517089556754
C          11.58922743681520   -7.86042527577673    0.66417968564205
O           9.00669701323677   -7.13704518727763   -1.40041794090825
C           8.11425947208444   -8.21659520014342   -1.57363257823682
O           7.04854849005164   -7.93130619362956   -2.40716011649500
C           7.40728167158355   -7.71361650859903   -3.76012635397872
O          -3.43155550545147    1.46278875707893    3.02191516395172
C          -4.24822373559228    0.31988563865155    2.93952149624462
O          -4.05347079292527   -0.55657744990849    3.99591627609607
C          -2.86968686194693   -1.32415683199221    3.93087417311461
O          -4.04423786091503    2.36939580164026    0.76952897012442
C          -5.13128649200537    3.25571670825880    0.61398549330977
O          -4.85256232857883    4.33705307043171   -0.20152214084042
C          -4.88715599325696    4.10372489870104   -1.59636404781468
H           1.77192790754784   -0.90756478802578   -1.04287810868734
H           3.42031000458350    0.17995754674015    0.43159326413015
H          -1.51843489907355    2.46133401926467    4.30457409971270
H          -1.37881306987779   -3.38053853288740   -3.06560742955208
H          -5.64731045417330    1.37255726110515   -1.21410183880701
H          10.08434300839730   -5.13042277226924   -2.46539894985219
H           5.18590822352624   -0.76681661520884   -1.22344692477646
H           3.90265940630557   -2.52481627790525   -0.06768721703594
H           7.43408306326170   -8.80465550728261    2.81802613349115
H           1.54470013165538   -6.04792310228949    1.37737564129024
H           4.35225330318161    3.15027206531532    3.96852174501401
H           3.03173193775152    3.91415438884361    4.90606929232092
H           4.19048162013371    1.12776889251983    5.41418432317145
H           4.52070334628422    2.56654671931702    6.38612576478012
H           2.88771179298508    1.89297256761840    6.34310390304593
H          -6.50592833893500   -1.22939289933486   -5.01155398916264
H          -5.33582646711284   -2.46468118286779   -5.56899105321541
H          -7.37645530918855   -2.83243026189794   -3.31748044962395
H          -7.51165203796872   -3.51238349160812   -4.94294030158760
H          -6.21659341949755   -4.05448255648052   -3.86978476445012
H           1.83037859433071   -9.93882305572559    4.06325595099065
H           3.40868278704013  -10.71610454925933    4.39630709879912
H           2.28303738685329   -8.27152929441386    5.85327954923406
H           2.34235457162668   -9.91336017611134    6.50476729165991
H           3.84570356896682   -9.04126234857609    6.18429581940909
H           9.25263023185768    0.67353081218961   -3.16743425188781
H          10.61173992520242   -0.46468463738815   -3.41999322508663
H           8.18305524791834   -0.15567936244164   -5.25559954591157
H           9.80400642921101    0.46373600107113   -5.59047727291603
H           9.53149370043235   -1.28033462292085   -5.50606147442957
H           3.17763891969723   -4.62182932215787   -2.41075806018175
H           1.25171708315836   -3.14774467529495   -3.35511812864495
H           9.42334722557506   -7.70081098273569    3.09326267641229
H           9.60066734177586   -8.99998010218354    1.84754763385634
H          11.03336974453340   -7.45509843847229   -0.18339848861192
H          12.59412178396559   -7.44690322598851    0.68382367185245
H          11.63853610774167   -8.95222680494733    0.58104882862990
H           8.75411858525325   -9.01770740008450   -1.97759303191611
H           7.66616053840851   -8.54515561330546   -0.62732276169583
H           7.93052666659365   -8.58572299699950   -4.16542254882350
H           6.47436766548650   -7.56059025321480   -4.29708163113984
H           8.04249748554652   -6.82960551973150   -3.86962402006289
H          -5.27478270779665    0.68461029674379    3.03674776162957
H          -4.11705478880798   -0.20489705567280    1.97819046203943
H          -1.97780773459783   -0.71166299523929    4.09875171449437
H          -2.78062648835010   -1.82770097600386    2.96032262435839
H          -2.94968770133978   -2.06622669583674    4.72200329421437
H          -6.03980798807841    2.72028783655538    0.29258571745798
H          -5.27941943480966    3.67330182868542    1.61544830406204
H          -4.08862857641155    3.42737756173276   -1.91762139898981
H          -5.85635315264541    3.69786274807404   -1.90601142143670
H          -4.73994300763317    5.07660560973423   -2.06027217711553
