132
 SCF done       -233.114697802195          0.000631793709
C           6.02441149957609    1.06991238267129   -6.24251481136708
O           5.13005471694143    1.68415601109624   -5.69187468860293
C           7.46722229848088    1.31105701887920   -6.03230421795974
C           8.06154559194692    2.19327324639625   -5.17811305218033
C           9.47212184775812    2.24499190065665   -5.11867821213091
C          10.23573236487108    1.37622970497235   -5.95021158408999
C           9.58824209239424    0.47769044060150   -6.82976722177829
C           8.21973086735467    0.44733735209862   -6.87209071730450
C           7.28319950837169   -0.35253232388096   -7.65820748102854
C           7.64473797363020   -1.18581456573590   -8.68773266566019
C           6.76536314599109   -1.88593147861893   -9.53965018422870
N           6.12913013589752   -2.47194469993006  -10.29619625008447
C           8.97965854605592   -1.42276176942741   -9.07472355788567
N          10.04249197386926   -1.66384336772133   -9.43681040278657
C           5.94032883400661   -0.04064616510356   -7.20854642426250
C           4.83648109986098   -0.77770086126820   -7.57878071835744
C         -13.54547953455247   -9.59639953861423   -6.00041122012724
O         -12.36279812495116   -9.31468586315414   -6.10001045765526
C         -14.09804367786811  -10.92822139722779   -5.68837016391353
C         -13.43341103864782  -12.09026790705004   -5.42680365705090
C         -14.17864607084405  -13.25477245899340   -5.13366991372017
C         -15.60133576224126  -13.18572391650527   -5.12068249101648
C         -16.26005754729308  -11.96547193506871   -5.40020972535303
C         -15.51846190196998  -10.84919377420281   -5.68064313907307
C         -15.90757881406569   -9.47345456129836   -5.99065816909142
C         -17.20284275336090   -9.03230524946769   -6.10933928908735
C         -17.60230454052105   -7.71748704023216   -6.42198136638405
N         -18.01240656332496   -6.67330536483549   -6.67260823067711
C         -18.33530721869445   -9.85490817538487   -5.94056787667150
N         -19.29915007550796  -10.46718864751278   -5.81820565849478
C         -14.69410131364544   -8.70430738017738   -6.15462715327394
C         -14.62811940494768   -7.34583365704405   -6.37542408448808
C         -13.52856950834926   -6.50080257215399   -6.52444839459142
S         -11.83026641795440   -6.96585375230418   -6.53263062851676
C         -11.39163195260021   -5.32780125367235   -6.73910248712369
C         -12.48865629944374   -4.44349815199523   -6.78060080105118
C         -13.68355331656629   -5.11063012200472   -6.68403478728281
C         -10.21085945886774   -4.57063918784723   -6.87216366810879
C         -10.52902321244620   -3.21791264699274   -6.99196827391582
C         -12.02693051997428   -3.01244681760182   -6.95851314986921
S          -8.51763666172633   -4.84786103735587   -6.89041987842879
C          -8.22222947564913   -3.12279588369069   -7.01473766919070
C          -9.40262562364292   -2.40459711583160   -7.05242987663728
C          -6.86386306245461   -2.64493962540922   -7.04152467360164
C          -6.51539198862604   -1.32727366973596   -6.66083919183789
C          -5.18277089361122   -0.96212190960692   -6.64515421463252
C          -4.15605965296333   -1.83810048049613   -7.01521779758470
C          -4.51221741496866   -3.13863122382398   -7.44076478055129
C          -5.84139448675940   -3.51467522286453   -7.42603429983493
C          -2.78057962082012   -1.42885988341395   -6.95221043968726
S          -1.51255492106900   -2.43231317564284   -7.60680082830159
C          -0.33749960767195   -1.27004953013175   -7.13950632323417
C          -0.89552645350336   -0.17670633606647   -6.47130905130387
C          -2.27696615795102   -0.26363087318438   -6.38769869630002
C           1.05460008078047   -1.08303627933098   -7.23725749348027
C           1.40061591980582    0.13433791214417   -6.62163873354551
C           0.17045577823869    0.81578029102097   -6.06260493531366
S           2.40243145484284   -1.90676016982811   -7.87703339747587
C           3.47702479472602   -0.62496408062698   -7.29139882205958
C           2.75565785700796    0.37822282705008   -6.63871857624035
O          -7.52753877674955   -0.49581554403898   -6.30302223466287
C           0.32468528442213    0.90787489264593   -4.53093623335279
C          -0.87382165155071    1.49429828807348   -3.79746281457385
C         -12.37308874128383   -2.12725599765494   -5.74518359786421
C         -13.85897721401740   -1.86625520560441   -5.53966744658316
O          -3.48901511449205   -3.92454644284178   -7.85557937443100
C          -3.69371971527756   -5.29201607356185   -8.15909280004695
C          -3.86991223943326   -6.14799106831937   -6.91009229916158
C          -7.23447729144302    0.79010220463839   -5.78958991599838
C          -8.55666177456314    1.43304146157476   -5.39969262208576
C         -12.57282759286431   -2.48035531463819   -8.29830668530233
C         -12.12476670488490   -1.07042988012390   -8.65904435893468
C          -0.11297634657824    2.16794062224113   -6.74524450851487
C           0.90127749417516    3.26415068033557   -6.44815955087472
C          11.64247378550886    1.42547469554858   -5.88213846515862
C          12.26112858456192    2.29638310167279   -5.02981733928571
C          11.50463404155997    3.15543687735881   -4.20904796606264
C          10.13884622427596    3.13184791796760   -4.25165675013477
C         -16.34074811098416  -14.34764121309169   -4.82293025762546
C         -15.69775895654879  -15.52262485427487   -4.55059389677094
C         -14.29089151379425  -15.58951694234670   -4.56428061021221
C         -13.54547528969892  -14.47996474271073   -4.85007471213832
F         -16.40317132203919  -16.62653713742827   -4.26621621698752
F          13.59979542553087    2.34082515928051   -4.96625551388095
F          12.13773108472511    4.00002010720285   -3.38111989316878
F         -13.68576619703581  -16.75514957593609   -4.29286224455820
H           7.46374256309752    2.84041355882511   -4.55426011477651
H          10.19574274162721   -0.16846294627644   -7.44205163241635
H           5.04410247785147   -1.65010011304868   -8.18768163790441
H         -12.35451340180298  -12.12092619676322   -5.44018465627490
H         -17.33747652070262  -11.94823781042542   -5.38022234643606
H         -15.57444060698357   -6.82124848992597   -6.42849494923690
H         -14.66097238110644   -4.66340755025664   -6.72259946102092
H          -9.41544903684909   -1.33499906600453   -7.12315829091908
H          -4.91318742664671    0.03618573233798   -6.34779009502991
H          -6.12744195161911   -4.50762302439744   -7.73418238732812
H          -2.90083384294226    0.48264991945130   -5.93236192322937
H           3.25162704838619    1.22365678036320   -6.19973532552171
H           0.50896945781718   -0.10244045248448   -4.15647080993476
H           1.21360694485036    1.50197566121283   -4.31651248502596
H          -1.75611623096159    0.87676452471518   -3.94197945374219
H          -0.66062143519165    1.53303512665959   -2.73154316382294
H          -1.09082263618568    2.50406521936423   -4.13469023453941
H         -11.97184122702454   -2.61799752199020   -4.85453347617754
H         -11.84745319901463   -1.17769628176815   -5.85787472698722
H         -14.39742000809686   -2.79552036329788   -5.37868479980012
H         -13.99745398762454   -1.24018774344869   -4.66090274107243
H         -14.29403501882927   -1.35172100264622   -6.39182623058147
H          -4.54246603824923   -5.40994862690068   -8.84257009435390
H          -2.78181947941722   -5.58354609327536   -8.68667859891455
H          -4.75572276394608   -5.85211289705165   -6.35353268680756
H          -3.96716838356939   -7.19134659390063   -7.19539287004681
H          -3.00281009651534   -6.03834320343086   -6.26391011488750
H          -6.58034870575503    0.70538137513467   -4.91145551973241
H          -6.72883458575497    1.39710535215286   -6.55305449295353
H          -9.06521485734119    0.81577640351465   -4.66403838914496
H          -8.37842346182093    2.41752902667229   -4.97755296679222
H          -9.19552107615475    1.53284424399791   -6.27310319518562
H         -12.24761590443640   -3.16799280867195   -9.08331229679238
H         -13.66227188699712   -2.52008629252893   -8.26180868852561
H         -11.04334687053180   -1.01917501901409   -8.74920909370085
H         -12.55770734893327   -0.78826643780527   -9.61625149301630
H         -12.45096745335140   -0.34820843321357   -7.91568058455190
H          -0.14287886150847    1.99190600779544   -7.82375070039606
H          -1.10758818403257    2.50034509452000   -6.44264201982276
H           1.89848661205325    2.96681439506584   -6.75749123842341
H           0.63077692321658    4.16363963406923   -6.99697429507381
H           0.92314172050796    3.50878042282456   -5.39006301600227
H          12.23689534365250    0.77529963992473   -6.50484737563060
H           9.57355754634455    3.79566579743624   -3.61650682125559
H         -17.41895137124860  -14.31343660153144   -4.80846628304825
H         -12.46884784060303  -14.54762434819350   -4.85615125832421
