# ORCA input file
# SCF done       -193.521828398206          0.000990932453
! wb97x-d3 def2-SVP def2/J RIJCOSX Grid4 TightSCF
%maxcore 5000
%tddft
    Mode sTDA
    Ethresh 5.0
    maxcore 5000
end

%pal
  nprocs 6
  end
* xyz 0 1
   C        1.24056        -2.88169        -2.20954
   O        1.77346        -3.40585        -1.25457
   C       -0.07103        -3.18066        -2.81562
   C       -1.04980        -4.10229        -2.39720
   C       -2.24777        -4.17647        -3.16607
   C       -2.40960        -3.33915        -4.29168
   C       -1.43924        -2.45609        -4.68761
   C       -0.25586        -2.37903        -3.94254
   C        0.94765        -1.58338        -4.16500
   C        1.33457        -1.04018        -5.36322
   C        2.64877        -0.59577        -5.61918
   N        3.71997        -0.28168        -5.88833
   C        0.50761        -0.93847        -6.49799
   N       -0.12627        -0.78850        -7.44374
   C        1.77751        -1.73813        -2.99254
   C        2.81383        -1.00677        -2.49903
   C        3.22962         0.29665        -2.84503
   S        2.12385         1.45432        -3.58618
   C        3.37197         2.64048        -3.64787
   C        4.56038         2.16014        -3.08270
   C        4.48293         0.84740        -2.60819
   C        5.64358         0.09881        -2.04595
   C        6.27518        -0.79171        -3.11885
   S        5.86877         3.31894        -3.14059
   C        4.81513         4.43002        -3.94079
   C        3.51963         3.93975        -4.13651
   N        2.75713         4.86234        -4.80688
   C        1.62096         4.36193        -5.55363
   C        2.07495         3.56572        -6.77678
   C        3.56346         5.96389        -5.05418
   C        4.86392         5.69931        -4.53583
   C        5.94427         6.58666        -4.73609
   N        7.20326         6.45581        -4.34889
   S        8.04517         7.72078        -4.90672
   N        6.83445         8.48698        -5.66013
   C        5.72725         7.77938        -5.50149
   C        4.41459         8.08977        -5.92053
   C        3.31001         7.23143        -5.63992
   N        2.15164         7.87796        -6.02080
   C        0.77225         7.61142        -5.68124
   C       -0.05249         7.20584        -6.90331
   C        2.49890         9.08746        -6.56214
   C        3.89127         9.23838        -6.52627
   S        4.45098        10.74561        -7.15972
   C        2.78397        11.19541        -7.46426
   C        1.85377        10.21063        -7.08921
   S        0.23294        10.71058        -7.40234
   C        0.81488        12.24568        -8.04856
   C        2.21569        12.34297        -8.00036
   C        3.03441        13.48544        -8.50583
   C        3.29300        13.34416       -10.00830
   C        0.00294        13.26110        -8.56510
   C       -1.35897        13.34594        -8.71053
   C       -2.07325        14.46890        -9.28124
   C       -1.54209        15.63487        -9.77177
   C       -2.29742        16.69299       -10.32005
   N       -2.83601        17.59661       -10.78054
   C       -0.17174        15.96679        -9.81005
   N        0.91978        16.32055        -9.87961
   C       -3.49695        14.13909        -9.24215
   C       -4.61097        14.87399        -9.66859
   C       -5.86014        14.33144        -9.51231
   C       -6.05882        13.05900        -8.93529
   C       -4.93413        12.30034        -8.49844
   C       -3.66169        12.87782        -8.67181
   C       -2.34081        12.33015        -8.32005
   O       -2.10631        11.24782        -7.80330
   C       -3.24402        -5.09469        -2.77548
   C       -3.06327        -5.89738        -1.68275
   C       -1.88103        -5.81932        -0.92875
   C       -0.89216        -4.94025        -1.27442
   C       -5.13798        11.03007        -7.92120
   C       -6.40413        10.53292        -7.78242
   C       -7.51554        11.27632        -8.21185
   C       -7.34796        12.51078        -8.77571
   H       -3.33138        -3.40822        -4.85138
   H       -1.58981        -1.82611        -5.54937
   H        3.35127        -1.47162        -1.67734
   H        6.38231         0.81882        -1.68886
   H        5.32173        -0.51777        -1.20405
   H        6.60399        -0.18964        -3.96180
   H        7.13255        -1.31910        -2.70935
   H        5.55378        -1.52001        -3.48165
   H        1.05280         3.71352        -4.87968
   H        0.98243         5.17587        -5.87257
   H        2.65213         4.19908        -7.44742
   H        2.69309         2.72034        -6.48395
   H        1.20777         3.18690        -7.31076
   H        0.74243         6.85917        -4.89139
   H        0.34944         8.53566        -5.27201
   H        0.43251         6.41400        -7.47005
   H       -1.03516         6.86602        -6.58819
   H       -0.18383         8.05995        -7.56174
   H        2.54420        14.44017        -8.31110
   H        3.99042        13.47813        -7.97851
   H        2.35704        13.34902       -10.56184
   H        3.90231        14.17320       -10.35613
   H        3.81563        12.41334       -10.21564
   H        0.56608        14.11683        -8.91103
   H       -4.49634        15.84851       -10.11309
   H       -6.72797        14.88695        -9.83772
   H       -4.15205        -5.15437        -3.35808
   H       -3.83064        -6.59976        -1.39235
   H       -1.75961        -6.46163        -0.06908
   H        0.01952        -4.87003        -0.70245
   H       -4.27757        10.46742        -7.59523
   H       -6.55925         9.56017        -7.33981
   H       -8.50654        10.86382        -8.09245
   H       -8.20063        13.08575        -9.10684
*
