# ORCA input file
# SCF done       -245.978062887458          0.000444689567
! wb97x-d3 def2-SVP def2/J RIJCOSX Grid4 TightSCF
%maxcore 5000
%tddft
    Mode sTDA
    Ethresh 5.0
    maxcore 5000
end

%pal
  nprocs 6
  end
* xyz 0 1
   C       -1.09263        -0.60930        -0.49904
   C       -1.59506         0.40241         0.35808
   C       -0.85454         0.78380         1.49960
   C        0.29957         0.05735         1.76405
   C        0.81641        -0.94941         0.88199
   C        0.11737        -1.25163        -0.30250
   O        0.50046        -2.21507        -1.19815
   C        1.42619        -1.82221        -2.20672
   O       -1.41896         1.76472         2.23938
   C       -0.65209         2.57916         3.10665
   S        1.23291         0.16128         3.25886
   C        2.24236        -1.12268         2.72056
   C        1.95234        -1.58162         1.44760
   C        3.24209        -1.92669         3.31105
   C        3.59984        -2.93204         2.40509
   C        2.88398        -2.72338         1.08254
   C        2.08111        -3.94086         0.66746
   C        3.99099        -2.30005         0.13077
   C        1.14844        -4.43529         1.57222
   C        0.35201        -5.51432         1.24576
   C        0.46550        -6.13138         0.00687
   C        1.40206        -5.63798        -0.88942
   C        2.20143        -4.55657        -0.56776
   C        4.94836        -3.22318        -0.27042
   C        5.99648        -2.84879        -1.09187
   C        6.13232        -1.53727        -1.52624
   C        5.18819        -0.61069        -1.09740
   C        4.13793        -0.97974        -0.27803
   C       -0.44436        -7.26178        -0.37724
   C       -1.70386        -6.71703        -1.05425
   C        7.25921        -1.06846        -2.40839
   C        8.07213        -2.17377        -3.07063
   S        4.04768        -2.06795         4.80707
   C        4.88313        -3.51811         4.22718
   C        4.52300        -3.82128         2.91546
   C        5.74179        -4.13618         5.14924
   C        6.51057        -5.27090         5.07166
   C        6.66961        -6.20900         3.93865
   C        7.54833        -7.28753         4.43065
   C        7.92817        -7.02481         5.75619
   C        7.31602        -5.76474         6.17699
   O        6.20547        -6.14408         2.81696
   C        7.50660        -5.18282         7.40413
   C        6.96206        -3.96322         7.85989
   C        8.31318        -5.73128         8.42447
   N        6.57848        -2.98618         8.32823
   N        8.94866        -6.10779         9.30363
   C        7.97676        -8.41518         3.75824
   C        8.80363        -9.30378         4.43004
   C        9.18265        -9.05415         5.74105
   C        8.75451        -7.91977         6.41845
   S       -2.17444        -0.99384        -1.81878
   C       -3.28240         0.19310        -1.22983
   C       -2.85700         0.85239        -0.08750
   C       -4.54314         0.69000        -1.63106
   C       -4.92215         1.70442        -0.73666
   C       -3.86887         1.89456         0.34021
   C       -4.50723         1.62511         1.68735
   C       -3.22156         3.26732         0.21899
   C       -4.21326         0.48992         2.42728
   C       -4.83221         0.26444         3.64394
   C       -5.76992         1.15421         4.14752
   C       -6.07945         2.27860         3.39268
   C       -5.46242         2.50896         2.17875
   C       -2.76372         3.67413        -1.02975
   C       -2.14460         4.89810        -1.19116
   C       -1.95901         5.75047        -0.10988
   C       -2.41497         5.33885         1.13465
   C       -3.03541         4.11298         1.30111
   C       -6.39817         0.93473         5.49326
   C       -5.56110         1.60226         6.58664
   C       -1.32461         7.09907        -0.29151
   C       -2.38836         8.14892        -0.61882
   S       -5.68423         0.40110        -2.86941
   C       -6.71654         1.65839        -2.19857
   C       -6.14081         2.24903        -1.06082
   C       -7.96902         2.05794        -2.67579
   C       -8.71112         1.59809        -3.73703
   C       -8.31203         0.53205        -4.66085
   C       -9.43324         0.36692        -5.60408
   C      -10.45107         1.28076        -5.27970
   C      -10.02367         2.07176        -4.12398
   O       -7.26861        -0.09838        -4.66257
   C      -10.75663         3.07476        -3.54196
   C      -10.36053         3.85409        -2.43562
   C      -12.03459         3.48025        -3.98023
   N      -10.11949         4.53639        -1.54275
   N      -13.07466         3.86446        -4.27881
   C       -9.55512        -0.51585        -6.65827
   C      -10.72492        -0.48623        -7.40502
   C      -11.73601         0.40942        -7.09067
   C      -11.61492         1.30039        -6.03129
   C        0.40065         3.39514         2.36751
   C        0.94571        -0.67848        -3.09110
   H        2.38559        -1.55312        -1.74957
   H        1.55663        -2.72814        -2.80149
   H       -1.39493         3.24380         3.55379
   H       -0.19676         1.99000         3.90987
   H        1.04238        -3.96581         2.54083
   H       -0.37003        -5.88084         1.96171
   H        1.50686        -6.10333        -1.85936
   H        2.91223        -4.19189        -1.29264
   H        4.88107        -4.24662         0.06479
   H        6.71532        -3.59770        -1.38280
   H        5.27840         0.42106        -1.40751
   H        3.43234        -0.22718         0.04488
   H        0.07087        -7.93631        -1.06415
   H       -0.72853        -7.82967         0.51105
   H       -1.43905        -6.15032        -1.94391
   H       -2.36522        -7.53110        -1.34203
   H       -2.23961        -6.05474        -0.37806
   H        6.83903        -0.42062        -3.18321
   H        7.92845        -0.44666        -1.80449
   H        7.42692        -2.83482        -3.64505
   H        8.80285        -1.73642        -3.74738
   H        8.60978        -2.76187        -2.33093
   H        4.92730        -4.67351         2.40265
   H        5.77853        -3.61270         6.09727
   H        7.66592        -8.58678         2.73905
   H        9.15425       -10.19533         3.93217
   H        9.82555        -9.75581         6.25111
   H        9.06657        -7.75688         7.43655
   H       -3.49694        -0.22856         2.06028
   H       -4.58326        -0.62313         4.20833
   H       -6.81516         2.98097         3.75800
   H       -5.71839         3.39154         1.61167
   H       -2.89278         3.02665        -1.88554
   H       -1.79704         5.19494        -2.17055
   H       -2.27870         5.98467         1.99098
   H       -3.36985         3.81542         2.28203
   H       -7.40597         1.35449         5.50497
   H       -6.47060        -0.13512         5.69871
   H       -5.48966         2.67289         6.40775
   H       -6.01269         1.44282         7.56293
   H       -4.55473         1.18937         6.59717
   H       -0.80202         7.38948         0.62241
   H       -0.59638         7.05963        -1.10429
   H       -3.11715         8.21236         0.18601
   H       -1.93048         9.12631        -0.75128
   H       -2.91271         7.88343        -1.53398
   H       -6.63838         3.04044        -0.53012
   H       -8.40863         2.85390        -2.08685
   H       -8.75505        -1.20448        -6.88263
   H      -10.85048        -1.16493        -8.23521
   H      -12.64072         0.41793        -7.67994
   H      -12.41888         1.98349        -5.81210
   H       -0.07075         3.97163         1.57454
   H        0.88615         4.07386         3.06233
   H        1.15673         2.74898         1.92827
   H        0.01639        -0.94152        -3.58928
   H        0.78626         0.22375        -2.50313
   H        1.70349        -0.47295        -3.84249
*
