233
 SCF done       -387.488087782451          0.000463188921
C           5.90690575610448   -1.60627350507764    0.95627897381473
C           4.61167117375501   -1.47891303764845    0.39644744819490
C           3.72443630147859   -2.52702936292386    0.42781344950319
C           4.16050699045564   -3.71376121425989    1.01529721132348
C           5.45692862046364   -3.84450228889622    1.56860513879115
C           6.33856280388539   -2.78850053560749    1.55209373113570
C           3.50000598799803   -4.96386806457416    1.19783191654646
C           4.32626952939592   -5.86701241499492    1.87031103018086
C           5.65958707537194   -5.22774573424607    2.16396058359614
C           6.56080758470012   -0.34867044056496    0.78066044851309
C           5.71465257229743    0.56648395303221    0.17147731456099
C           4.40011561717350   -0.08563734823007   -0.17328197983986
S           1.98251402776549   -5.63231894465945    0.80454911465718
C           2.45205683063689   -7.16987006654227    1.55064260967002
C           3.74611973960311   -7.10447204619667    2.06718891150514
S           8.10502891545670    0.30883981985426    1.11897481657815
C           7.60200055970265    1.85171056332797    0.45603706983488
C           6.29786361739544    1.81482123833826   -0.00828252496399
C           6.73790430303636   -6.05106261975538    1.48309603916497
C           5.93941240198917   -5.05809208085586    3.64717771931173
C           3.19520993285926    0.53916538881204    0.50201635782347
C           4.26723325409330   -0.06143072226931   -1.68649655853029
C           1.48558294925024   -8.18323515834953    1.50691908054068
C           1.48850582578211   -9.48298158818065    1.95624629604431
C           2.56992103902732  -10.21977758158027    2.63899335289081
C           2.04849274193170  -11.58835628173353    2.84928603887034
C           0.74176402733471  -11.68154838798088    2.34662082630792
C           0.35918780333451  -10.38247801926933    1.79448541087966
C           2.68487499301898  -12.66121910185740    3.43809074112593
C           1.99801126201227  -13.86513036793148    3.52714338721597
C           0.69568213227660  -13.96956298919707    3.02860895195206
C           0.05903139562497  -12.88373874011058    2.43725225681574
O           3.66942278433802   -9.83446724310764    2.98153511016812
C          -0.86618389565675  -10.10808430057378    1.24171294458438
C          -1.30230350947676   -8.87435351107086    0.71323898028504
C          -1.90913601061711  -11.05191872387980    1.12405138878064
N          -2.80380920437688  -11.75907169260583    0.99160598149784
N          -1.76023165534405   -7.92029726998470    0.26510659830693
C           8.48588152737305    2.97925793166557    0.43496220139849
C           8.01345935365654    4.30362342205022    0.21096333157579
C           8.90179552738284    5.43911952104367    0.20423686768381
C          10.30739750421313    5.29672643072941    0.38095839746328
C          10.72528146318029    3.98796540309434    0.58122706737003
C           9.85805681028527    2.89029968366750    0.62693547751588
N           6.74953991366908    4.66711043119730    0.01016165551282
S           6.67871674537220    6.26129100297302   -0.17483496764116
N           8.24506829963430    6.57633845455322   -0.00807527616961
C          14.23319366871504    8.81745280798381    0.02659299060165
C          13.70799596272195   10.12257753015063    0.18896110662952
C          14.52236742953221   11.22602018334470    0.09996858359923
C          15.87463948055035   11.00260555944984   -0.15321990303121
C          16.39677449820844    9.69731561511483   -0.32987555340828
C          15.58296043733135    8.59351692476742   -0.23204163061788
C          16.96379728258844   11.91215085289632   -0.30392453430515
C          18.15070365335837   11.21958129460980   -0.53175148459430
C          17.88932940954305    9.73929980170008   -0.60666499517732
C          13.13817517226721    7.90919457145797    0.15190775335580
C          11.94742069335038    8.59520097734977    0.34100790571221
C          12.20756902443129   10.07750153362395    0.43156513400696
S          17.17848611665089   13.60698762836580   -0.34922459512346
C          18.87183098098216   13.39411127503370   -0.77385324962443
C          19.22236560869905   12.04734395391158   -0.80615615921510
S          12.92159475023584    6.21155682530759    0.12566194549387
C          11.19440014941373    6.42100326026921    0.34175606690544
C          10.84384324602776    7.75695777640875    0.44279181981329
C          18.60769450809260    8.89932298508411    0.42671067694957
C          18.27384875183532    9.36674652741517   -2.03042597077596
C          11.51738717496983   10.90091672478050   -0.63778034483509
C          11.80134566289281   10.51644474429675    1.82768305851187
C          19.67999499153172   14.51568485425398   -1.02625391339148
C          20.86101299513116   14.55674378115426   -1.71681259044364
C          21.78554960409727   15.69696505884930   -1.50856725007161
C          23.06720075192633   15.26950815226858   -2.11609470792167
C          22.89346255438557   14.02348954849983   -2.74473331530142
C          21.48879383901266   13.62884959780663   -2.62974815808884
C          24.28821229174201   15.91102064817449   -2.10486731269102
C          25.36552185233183   15.28922954663194   -2.72513303146634
C          25.20355684903641   14.04350928453044   -3.33986147912498
C          23.96830738502693   13.40438442793187   -3.35865289560032
O          21.55066171743113   16.73216078282087   -0.92837399602463
C          20.86452760740838   12.72305761113743   -3.45109204612269
C          19.46656218359596   12.56268362287192   -3.53866948091256
C          21.53545875985288   11.91192258292397   -4.38683263293632
N          22.02941429430700   11.21134374454408   -5.15108960029209
N          18.33741353047699   12.43627470814005   -3.70289135709146
Cl          2.75310351471998  -15.22724830032489    4.25159084838146
Cl         -0.14451920268759  -15.46390191466043    3.14306717173235
Cl         26.54777725059857   13.27956422345423   -4.08792984959066
Cl         26.90226857591401   16.05652209240693   -2.73228508987639
C          19.61214428879012    9.13239553761062   -2.32541217095237
C          20.01821053996060    8.93632751734905   -3.62998520683104
C          19.10338283626727    8.98381037245399   -4.67521966918799
C          17.76785035502922    9.20433012280808   -4.37236696791762
C          17.35439271634711    9.40171519121072   -3.06680267943964
C          18.76060316652115    7.53653429440943    0.21421914514891
C          19.38077624110398    6.72773966569999    1.15548948927371
C          19.84774095197331    7.30431618212373    2.32943702490777
C          19.68860964671834    8.65959765590596    2.55528439715555
C          19.06858205134655    9.45800453440685    1.61039213311595
C          12.72293802529593   10.64716849367915    2.85579705785437
C          12.30676726617627   11.00166219496593    4.12690634083847
C          10.96531981067746   11.22114223110254    4.40577552646148
C          10.04529025441954   11.07638839391044    3.37451941259423
C          10.45488914287709   10.72459871248486    2.10357499085002
C          11.35095618250870   12.26898998494891   -0.46035951103311
C          10.76219543469129   13.03750925060973   -1.44585560448722
C          10.32653114097598   12.46373040192153   -2.63352008854113
C          10.50428176067999   11.09844405853181   -2.80953882482928
C          11.09477127314818   10.32474880353474   -1.82699311924458
C           1.92042235104611    0.30339456442219    0.00183121736200
C           0.81080950624522    0.83200865583673    0.63249224387639
C           0.94253818792434    1.60738966966813    1.77750751755621
C           2.21750883470986    1.83148412844384    2.27829945596743
C           3.33159269265857    1.30245040335030    1.65242856395665
C           4.58754091545050   -1.15803883494900   -2.47301845932428
C           4.49002859527167   -1.08309870487014   -3.85092770372153
C           4.08078161575241    0.08580685095319   -4.47716682480304
C           3.77801248703282    1.18638627420959   -3.68519039278025
C           3.87058221312768    1.11633806375326   -2.30890288252248
C           7.30179027857530   -5.67451835631608    0.27367861365368
C           8.25839998802888   -6.47200039280250   -0.32970845227893
C           8.66315264715289   -7.66601359411429    0.24957658655737
C           8.08309362464237   -8.04505578465484    1.45420528589316
C           7.13106441616188   -7.25191483326888    2.06300231801888
C           4.90570051094135   -5.01937418291199    4.57207055104808
C           5.17252605421118   -4.81482656982817    5.91313518759938
C           6.47293540317333   -4.63193713440811    6.36324927867053
C           7.50275116639222   -4.66139827805283    5.43193794381171
C           7.24189267134017   -4.86760812086935    4.09070734507302
C          19.55905643543918    8.77443301401720   -6.08932625155915
C          19.65562760525908    7.28210537156253   -6.41173201068345
C          19.58678807046319    5.26786675429532    0.87089354984417
C          20.82820359747573    5.06719372001408   -0.00063805297393
C          10.52267785333674   11.65218314948592    5.77423690152242
C          10.50129394525507   13.17905306190479    5.87146305255947
C           9.72651331618670   13.31041901804727   -3.71857452974891
C          10.82350103434142   13.86891092566639   -4.62732468006063
C           9.73722704764136   -8.50415264836089   -0.38133739350312
C          11.11104430755970   -8.10850460086433    0.16415426699195
C           6.76205456801847   -4.45778151954877    7.82619135249294
C           6.95970049060320   -5.81916945333778    8.49601982064026
C           4.01877164682118    0.17213414989773   -5.97486973576277
C           5.38109623182070    0.57369888427179   -6.54393063904423
C          -0.26942872484629    2.14490561918061    2.48225094827217
C          -0.80535670992123    1.11809295223093    3.48195130890002
F          12.03299726630519    3.72436648457944    0.76039667920447
F          10.42407715244242    1.69046561790617    0.85414867084597
H           2.73012245089954   -2.44855836633695    0.01622333428703
H           7.32701521219908   -2.86355781624730    1.97817487754429
H           4.20672922702001   -7.94078622825493    2.55837717797168
H           5.82285986616448    2.66983262413206   -0.44946998114122
H           0.57332221388290   -7.86568030582112    1.01608919994081
H           3.68968691206461  -12.56345169772463    3.81755322643878
H          -0.94462852978827  -13.00662782917262    2.06575063332268
H          14.14205711507486   12.22875478074452    0.21873480968313
H          15.96191885637843    7.59120485716826   -0.35668581636809
H          20.22674990361230   11.71031182740853   -0.98902039652926
H           9.82797058346777    8.07376520977485    0.58077241093678
H          19.37209345516786   15.45618902207879   -0.58084894742268
H          24.40167960188516   16.87127059203122   -1.62720145568369
H          23.87855527078537   12.44367650144093   -3.83901770164704
H          20.33967154679567    9.10714265048878   -1.52567357884772
H          21.06320104144756    8.76667596577463   -3.84636532499696
H          17.04003462283187    9.24530934678072   -5.16963200040917
H          16.31276245228012    9.59727326670966   -2.85894530248129
H          18.40416227093815    7.09933669542170   -0.70795803947585
H          20.33598287676769    6.68806397978422    3.07057842736512
H          20.05036849833908    9.09950610208634    3.47318801645695
H          18.94558001456703   10.51591157378568    1.79274915559386
H          13.77239484231476   10.47306885068652    2.66804432389867
H          13.03899079746453   11.10379713986902    4.91529501169870
H           8.99477191508025   11.23732058839404    3.57118405039885
H           9.72632307499521   10.61806896032417    1.31300307451080
H          11.67081568077271   12.73302329539790    0.46163859556387
H          10.63555140568217   14.09936553657180   -1.28915402809543
H          10.17480437295287   10.63190971567258   -3.72711082955888
H          11.22178239440259    9.26396096278087   -1.98651348102819
H           1.79653507973497   -0.28494921556164   -0.89600184573124
H          -0.17291281647811    0.64307115240287    0.22686247562020
H           2.34273984977725    2.42973323732513    3.16973101464670
H           4.31368989682868    1.49081234608962    2.06090817265139
H           4.91086404612523   -2.07987250822700   -2.01217986293865
H           4.73426306952973   -1.95024622575440   -4.44801072471935
H           3.46221576297427    2.10852393088016   -4.15213016873863
H           3.62219150842003    1.97895698976946   -1.70780185002167
H           6.99934858106110   -4.75330175202829   -0.20268152009231
H           8.69313715354432   -6.16013009836527   -1.26883304012993
H           8.37781448921461   -8.97481485720272    1.91898561057134
H           6.69315053191956   -7.56127768419820    3.00038796137942
H           3.88399244456774   -5.15269841069464    4.24745604737462
H           4.35543335773071   -4.79336618465710    6.62019733026920
H           8.52253030819534   -4.51818784742345    5.75987718189337
H           8.05876193117568   -4.89294780855008    3.38406374280589
H          18.85569645989414    9.24831766420399   -6.77646430079474
H          20.53737974086168    9.23937856107613   -6.22576472265218
H          18.68548703777622    6.80469749507906   -6.28958087213283
H          19.98850671702375    7.13587163160186   -7.43649097462560
H          20.36315863125449    6.79522594841596   -5.74440199438562
H          19.70886613095172    4.71970837205516    1.80684076470221
H          18.71488864519417    4.86613013579181    0.35043941445195
H          21.71182912424721    5.44831799193862    0.50675978295043
H          20.97787769573791    4.01114226338622   -0.21235759425019
H          20.71865756323959    5.59894545735623   -0.94339343664070
H           9.52253850581924   11.26481530692011    5.97911263209093
H          11.20493685051312   11.25310400017843    6.52742047798203
H           9.81748646431645   13.59529730373191    5.13498727447503
H          10.17952057980153   13.49344472054077    6.86151710651839
H          11.49343370383241   13.58342176896425    5.68360406374153
H           9.03400786921104   12.71318214777894   -4.31513650994208
H           9.16979834599583   14.13925319794135   -3.27631989380903
H          11.38233604242260   13.05754817463070   -5.08811429367575
H          10.39081619637804   14.48380384312230   -5.41303803733074
H          11.51806969169886   14.47709185183668   -4.05236940172814
H           9.55593235329970   -9.55945797652768   -0.16799104420263
H           9.72688786178078   -8.36718132284569   -1.46448806310381
H          11.14490493695318   -8.25013516508390    1.24209907144825
H          11.89071504467333   -8.71496519549838   -0.29075142238608
H          11.31563995432910   -7.06174999254334   -0.04963652259247
H           7.66477153623751   -3.85769669137133    7.95686356566685
H           5.93213024848456   -3.93696016858369    8.30822948102376
H           7.79259239621458   -6.34811356434329    8.03819563147559
H           7.16668110674431   -5.69559102447180    9.55647754963208
H           6.06564500855022   -6.42852523021605    8.38464455485849
H           3.72757123503026   -0.79514456326658   -6.38938046846482
H           3.27224364412837    0.91073518811517   -6.27327847503448
H           6.13726530080018   -0.15644879960630   -6.26467382254840
H           5.33856874026983    0.63253431861269   -7.62895863033426
H           5.68301294518158    1.54334160157545   -6.15436920165130
H          -0.01286035235703    3.06404865516224    3.01274333641829
H          -1.04883318501721    2.37669403090066    1.75352805399835
H          -0.04633991282369    0.88193127713850    4.22449368122976
H          -1.68338795940697    1.50620008973140    3.99289918580889
H          -1.07923885048547    0.19860062620633    2.96968289653629
