# ORCA input file
# SCF done       -387.488087782451          0.000463188921
! wb97x-d3 def2-SVP def2/J RIJCOSX Grid4 TightSCF
%maxcore 5000
%tddft
    Mode sTDA
    Ethresh 5.0
    maxcore 5000
end

%pal
  nprocs 6
  end
* xyz 0 1
   C        5.90691        -1.60627         0.95628
   C        4.61167        -1.47891         0.39645
   C        3.72444        -2.52703         0.42781
   C        4.16051        -3.71376         1.01530
   C        5.45693        -3.84450         1.56861
   C        6.33856        -2.78850         1.55209
   C        3.50001        -4.96387         1.19783
   C        4.32627        -5.86701         1.87031
   C        5.65959        -5.22775         2.16396
   C        6.56081        -0.34867         0.78066
   C        5.71465         0.56648         0.17148
   C        4.40012        -0.08564        -0.17328
   S        1.98251        -5.63232         0.80455
   C        2.45206        -7.16987         1.55064
   C        3.74612        -7.10447         2.06719
   S        8.10503         0.30884         1.11897
   C        7.60200         1.85171         0.45604
   C        6.29786         1.81482        -0.00828
   C        6.73790        -6.05106         1.48310
   C        5.93941        -5.05809         3.64718
   C        3.19521         0.53917         0.50202
   C        4.26723        -0.06143        -1.68650
   C        1.48558        -8.18324         1.50692
   C        1.48851        -9.48298         1.95625
   C        2.56992       -10.21978         2.63899
   C        2.04849       -11.58836         2.84929
   C        0.74176       -11.68155         2.34662
   C        0.35919       -10.38248         1.79449
   C        2.68487       -12.66122         3.43809
   C        1.99801       -13.86513         3.52714
   C        0.69568       -13.96956         3.02861
   C        0.05903       -12.88374         2.43725
   O        3.66942        -9.83447         2.98154
   C       -0.86618       -10.10808         1.24171
   C       -1.30230        -8.87435         0.71324
   C       -1.90914       -11.05192         1.12405
   N       -2.80381       -11.75907         0.99161
   N       -1.76023        -7.92030         0.26511
   C        8.48588         2.97926         0.43496
   C        8.01346         4.30362         0.21096
   C        8.90180         5.43912         0.20424
   C       10.30740         5.29673         0.38096
   C       10.72528         3.98797         0.58123
   C        9.85806         2.89030         0.62694
   N        6.74954         4.66711         0.01016
   S        6.67872         6.26129        -0.17483
   N        8.24507         6.57634        -0.00808
   C       14.23319         8.81745         0.02659
   C       13.70800        10.12258         0.18896
   C       14.52237        11.22602         0.09997
   C       15.87464        11.00261        -0.15322
   C       16.39677         9.69732        -0.32988
   C       15.58296         8.59352        -0.23204
   C       16.96380        11.91215        -0.30392
   C       18.15070        11.21958        -0.53175
   C       17.88933         9.73930        -0.60666
   C       13.13818         7.90919         0.15191
   C       11.94742         8.59520         0.34101
   C       12.20757        10.07750         0.43157
   S       17.17849        13.60699        -0.34922
   C       18.87183        13.39411        -0.77385
   C       19.22237        12.04734        -0.80616
   S       12.92159         6.21156         0.12566
   C       11.19440         6.42100         0.34176
   C       10.84384         7.75696         0.44279
   C       18.60769         8.89932         0.42671
   C       18.27385         9.36675        -2.03043
   C       11.51739        10.90092        -0.63778
   C       11.80135        10.51644         1.82768
   C       19.67999        14.51568        -1.02625
   C       20.86101        14.55674        -1.71681
   C       21.78555        15.69697        -1.50857
   C       23.06720        15.26951        -2.11609
   C       22.89346        14.02349        -2.74473
   C       21.48879        13.62885        -2.62975
   C       24.28821        15.91102        -2.10487
   C       25.36552        15.28923        -2.72513
   C       25.20356        14.04351        -3.33986
   C       23.96831        13.40438        -3.35865
   O       21.55066        16.73216        -0.92837
   C       20.86453        12.72306        -3.45109
   C       19.46656        12.56268        -3.53867
   C       21.53546        11.91192        -4.38683
   N       22.02941        11.21134        -5.15109
   N       18.33741        12.43627        -3.70289
  Cl        2.75310       -15.22725         4.25159
  Cl       -0.14452       -15.46390         3.14307
  Cl       26.54778        13.27956        -4.08793
  Cl       26.90227        16.05652        -2.73229
   C       19.61214         9.13240        -2.32541
   C       20.01821         8.93633        -3.62999
   C       19.10338         8.98381        -4.67522
   C       17.76785         9.20433        -4.37237
   C       17.35439         9.40172        -3.06680
   C       18.76060         7.53653         0.21422
   C       19.38078         6.72774         1.15549
   C       19.84774         7.30432         2.32944
   C       19.68861         8.65960         2.55528
   C       19.06858         9.45800         1.61039
   C       12.72294        10.64717         2.85580
   C       12.30677        11.00166         4.12691
   C       10.96532        11.22114         4.40578
   C       10.04529        11.07639         3.37452
   C       10.45489        10.72460         2.10357
   C       11.35096        12.26899        -0.46036
   C       10.76220        13.03751        -1.44586
   C       10.32653        12.46373        -2.63352
   C       10.50428        11.09844        -2.80954
   C       11.09477        10.32475        -1.82699
   C        1.92042         0.30339         0.00183
   C        0.81081         0.83201         0.63249
   C        0.94254         1.60739         1.77751
   C        2.21751         1.83148         2.27830
   C        3.33159         1.30245         1.65243
   C        4.58754        -1.15804        -2.47302
   C        4.49003        -1.08310        -3.85093
   C        4.08078         0.08581        -4.47717
   C        3.77801         1.18639        -3.68519
   C        3.87058         1.11634        -2.30890
   C        7.30179        -5.67452         0.27368
   C        8.25840        -6.47200        -0.32971
   C        8.66315        -7.66601         0.24958
   C        8.08309        -8.04506         1.45421
   C        7.13106        -7.25191         2.06300
   C        4.90570        -5.01937         4.57207
   C        5.17253        -4.81483         5.91314
   C        6.47294        -4.63194         6.36325
   C        7.50275        -4.66140         5.43194
   C        7.24189        -4.86761         4.09071
   C       19.55906         8.77443        -6.08933
   C       19.65563         7.28211        -6.41173
   C       19.58679         5.26787         0.87089
   C       20.82820         5.06719        -0.00064
   C       10.52268        11.65218         5.77424
   C       10.50129        13.17905         5.87146
   C        9.72651        13.31042        -3.71857
   C       10.82350        13.86891        -4.62732
   C        9.73723        -8.50415        -0.38134
   C       11.11104        -8.10850         0.16415
   C        6.76205        -4.45778         7.82619
   C        6.95970        -5.81917         8.49602
   C        4.01877         0.17213        -5.97487
   C        5.38110         0.57370        -6.54393
   C       -0.26943         2.14491         2.48225
   C       -0.80536         1.11809         3.48195
   F       12.03300         3.72437         0.76040
   F       10.42408         1.69047         0.85415
   H        2.73012        -2.44856         0.01622
   H        7.32702        -2.86356         1.97817
   H        4.20673        -7.94079         2.55838
   H        5.82286         2.66983        -0.44947
   H        0.57332        -7.86568         1.01609
   H        3.68969       -12.56345         3.81755
   H       -0.94463       -13.00663         2.06575
   H       14.14206        12.22875         0.21873
   H       15.96192         7.59120        -0.35669
   H       20.22675        11.71031        -0.98902
   H        9.82797         8.07377         0.58077
   H       19.37209        15.45619        -0.58085
   H       24.40168        16.87127        -1.62720
   H       23.87856        12.44368        -3.83902
   H       20.33967         9.10714        -1.52567
   H       21.06320         8.76668        -3.84637
   H       17.04003         9.24531        -5.16963
   H       16.31276         9.59727        -2.85895
   H       18.40416         7.09934        -0.70796
   H       20.33598         6.68806         3.07058
   H       20.05037         9.09951         3.47319
   H       18.94558        10.51591         1.79275
   H       13.77239        10.47307         2.66804
   H       13.03899        11.10380         4.91530
   H        8.99477        11.23732         3.57118
   H        9.72632        10.61807         1.31300
   H       11.67082        12.73302         0.46164
   H       10.63555        14.09937        -1.28915
   H       10.17480        10.63191        -3.72711
   H       11.22178         9.26396        -1.98651
   H        1.79654        -0.28495        -0.89600
   H       -0.17291         0.64307         0.22686
   H        2.34274         2.42973         3.16973
   H        4.31369         1.49081         2.06091
   H        4.91086        -2.07987        -2.01218
   H        4.73426        -1.95025        -4.44801
   H        3.46222         2.10852        -4.15213
   H        3.62219         1.97896        -1.70780
   H        6.99935        -4.75330        -0.20268
   H        8.69314        -6.16013        -1.26883
   H        8.37781        -8.97481         1.91899
   H        6.69315        -7.56128         3.00039
   H        3.88399        -5.15270         4.24746
   H        4.35543        -4.79337         6.62020
   H        8.52253        -4.51819         5.75988
   H        8.05876        -4.89295         3.38406
   H       18.85570         9.24832        -6.77646
   H       20.53738         9.23938        -6.22576
   H       18.68549         6.80470        -6.28958
   H       19.98851         7.13587        -7.43649
   H       20.36316         6.79523        -5.74440
   H       19.70887         4.71971         1.80684
   H       18.71489         4.86613         0.35044
   H       21.71183         5.44832         0.50676
   H       20.97788         4.01114        -0.21236
   H       20.71866         5.59895        -0.94339
   H        9.52254        11.26482         5.97911
   H       11.20494        11.25310         6.52742
   H        9.81749        13.59530         5.13499
   H       10.17952        13.49344         6.86152
   H       11.49343        13.58342         5.68360
   H        9.03401        12.71318        -4.31514
   H        9.16980        14.13925        -3.27632
   H       11.38234        13.05755        -5.08811
   H       10.39082        14.48380        -5.41304
   H       11.51807        14.47709        -4.05237
   H        9.55593        -9.55946        -0.16799
   H        9.72689        -8.36718        -1.46449
   H       11.14490        -8.25014         1.24210
   H       11.89072        -8.71497        -0.29075
   H       11.31564        -7.06175        -0.04964
   H        7.66477        -3.85770         7.95686
   H        5.93213        -3.93696         8.30823
   H        7.79259        -6.34811         8.03820
   H        7.16668        -5.69559         9.55648
   H        6.06565        -6.42853         8.38464
   H        3.72757        -0.79514        -6.38938
   H        3.27224         0.91074        -6.27328
   H        6.13727        -0.15645        -6.26467
   H        5.33857         0.63253        -7.62896
   H        5.68301         1.54334        -6.15437
   H       -0.01286         3.06405         3.01274
   H       -1.04883         2.37669         1.75353
   H       -0.04634         0.88193         4.22449
   H       -1.68339         1.50620         3.99290
   H       -1.07924         0.19860         2.96968
*
