# ORCA input file
# SCF done       -252.384828002279          0.001346440038
! wb97x-d3 def2-SVP def2/J RIJCOSX Grid4 TightSCF
%maxcore 5000
%tddft
    Mode sTDA
    Ethresh 5.0
    maxcore 5000
end

%pal
  nprocs 6
  end
* xyz 0 1
   C        2.45496        -2.83865         0.02991
   C        2.61076        -2.15209         1.25872
   C        1.67492        -1.22037         1.70247
   C        0.54793        -1.04934         0.93410
   C        0.33544        -1.82816        -0.22909
   C        1.30639        -2.70208        -0.71311
   C        3.64647        -3.74356        -0.23878
   C        4.38826        -3.63051         1.06895
   C        3.79188        -2.66839         1.87276
   C        5.48465        -4.24060         1.66323
   C        5.71157        -3.77371         2.94777
   S        4.56903        -2.51208         3.39142
   C       -0.64196        -0.14121         1.20156
   C       -1.61241        -0.63480         0.15749
   C       -0.99752        -1.56477        -0.67078
   C       -2.94379        -0.41631        -0.16652
   C       -3.36354        -1.21590        -1.22104
   S       -2.06694        -2.21176        -1.84470
   C        6.64869        -4.26886         3.90111
   C       -4.69070        -1.35981        -1.72873
   C       -1.10710        -0.32580         2.63044
   C       -0.35316         1.31782         0.88700
   C        3.16618        -5.13897        -0.57426
   C        4.57524        -3.19618        -1.31190
   C        6.64430        -3.85858         5.23259
   C        7.45392        -4.41536         6.21200
   C        8.36500        -5.43424         5.94080
   C        8.45805        -5.83147         4.57436
   C        7.60557        -5.26773         3.56344
   C       -5.75620        -0.55891        -1.32636
   C       -7.05970        -0.77732        -1.75362
   C       -7.41309        -1.79245        -2.63636
   C       -6.36390        -2.64828        -3.05563
   C       -5.01444        -2.41620        -2.62163
   N        9.28342        -6.74776         4.07552
   S        9.02269        -6.88392         2.49458
   N        7.84565        -5.79623         2.36506
   N       -6.46253        -3.75279        -3.79246
   S       -5.00249        -4.39391        -3.97182
   N       -4.17444        -3.33359        -3.09312
   C        9.18955        -6.13728         6.86499
   C        9.26423        -6.15541         8.22394
   C       -8.78132        -2.00682        -3.00752
   C       -9.22971        -2.53492        -4.16921
   C       -8.50222        -2.71501        -5.42633
   N       -9.29371        -3.39859        -6.34567
   C      -10.56818        -3.66802        -5.96489
   S      -10.90216        -3.03572        -4.36740
   C        8.53299        -5.44615         9.26743
   N        8.91021        -5.89971        10.52785
   C        9.87153        -6.85779        10.57127
   S       10.40856        -7.27739         8.96541
   C        8.30142        -5.29062        11.69648
   O        7.69221        -4.58102         9.13683
   C       10.40457        -7.48744        11.66907
   C       11.39317        -8.47657        11.48403
   C       10.06792        -7.26616        13.01472
   C        2.86726        -5.47297        -1.88938
   C        2.38615        -6.72994        -2.20204
   C        2.18476        -7.68314        -1.21236
   C        2.47537        -7.34087         0.10137
   C        2.95410        -6.08348         0.41998
   C        5.63318        -3.98517        -1.74843
   C        6.53027        -3.50296        -2.68082
   C        6.40215        -2.21883        -3.19604
   C        5.34615        -1.43466        -2.75412
   C        4.44441        -1.91238        -1.81961
   C       -0.53725         0.42804         3.64947
   C       -0.91856         0.23447         4.96321
   C       -1.87315        -0.71799         5.29640
   C       -2.43285        -1.47448         4.27596
   C       -2.05122        -1.28789         2.95986
   C        0.78145         1.71211         0.19366
   C        0.98691         3.04563        -0.11256
   C        0.06663         4.01556         0.25871
   C       -1.07474         3.61350         0.94154
   C       -1.28433         2.28383         1.25004
   O       -7.40410        -2.29371        -5.70601
   C       -8.74650        -3.68403        -7.65907
   C      -11.54524        -4.34082        -6.65421
   C      -12.81656        -4.50854        -6.06547
   C      -11.42755        -4.92133        -7.92844
   N       12.19785        -9.28275        11.34705
   N        9.84486        -7.13609        14.13412
   N      -11.40153        -5.41986        -8.96301
   N      -13.85469        -4.64985        -5.59921
   C       -2.32223        -0.88795         6.71894
   C        0.27264         5.45558        -0.11324
   C        7.35425        -1.71059        -4.23990
   C        1.71388        -9.06569        -1.56061
   C        2.90842        -9.98754        -1.81322
   C        6.84254        -2.04968        -5.64141
   C       -3.47160         0.07160         7.03423
   C       -0.35890         5.75171        -1.47510
   C       -9.19014        -2.65259        -8.68958
   C        9.18720        -4.19938        12.28526
   H        1.82458        -0.68113         2.62518
   H        1.14266        -3.26382        -1.61967
   H        6.08841        -5.01325         1.22579
   H       -3.59460         0.25654         0.36060
   H        5.94729        -3.08592         5.52356
   H        7.35649        -4.05986         7.22379
   H       -5.56954         0.26129        -0.65150
   H       -7.83570        -0.11359        -1.40040
   H        9.86221        -6.82856         6.36673
   H       -9.52068        -1.74731        -2.25855
   H        7.36040        -4.85490        11.34951
   H        8.09036        -6.06416        12.43624
   H        3.02319        -4.74746        -2.67499
   H        2.16214        -6.97388        -3.23086
   H        2.32098        -8.06620         0.88766
   H        3.16539        -5.83760         1.45062
   H        5.74777        -4.98594        -1.35848
   H        7.34651        -4.13021        -3.00974
   H        5.22799        -0.43245        -3.14122
   H        3.63503        -1.27855        -1.48818
   H        0.20206         1.17936         3.41096
   H       -0.46639         0.83120         5.74267
   H       -3.17394        -2.22464         4.51330
   H       -2.49305        -1.89639         2.18408
   H        1.51410         0.97764        -0.10677
   H        1.88040         3.33575        -0.64707
   H       -1.80639         4.35196         1.23743
   H       -2.17287         1.99061         1.79037
   H       -7.66025        -3.64482        -7.54172
   H       -9.04251        -4.68998        -7.96108
   H       -2.65524        -1.91472         6.88262
   H       -1.48988        -0.68616         7.39614
   H       -0.18052         6.10172         0.64130
   H        1.34076         5.67765        -0.15657
   H        7.46069        -0.62777        -4.14826
   H        8.33702        -2.16404        -4.09649
   H        1.11430        -9.47012        -0.74274
   H        1.09118        -9.03025        -2.45655
   H        3.53222       -10.04988        -0.92452
   H        2.57011       -10.98836        -2.07116
   H        3.51520        -9.60439        -2.63047
   H        5.86900        -1.59436        -5.80891
   H        7.53250        -1.68305        -6.39779
   H        6.74065        -3.12649        -5.75647
   H       -4.31718        -0.12277         6.37805
   H       -3.79676        -0.04901         8.06487
   H       -3.15504         1.10196         6.88792
   H       -1.42728         5.54914        -1.44897
   H       -0.20930         6.79430        -1.74569
   H        0.08840         5.12516        -2.24356
   H       -8.87030        -1.65844        -8.38563
   H       -8.73962        -2.88743        -9.64917
   H      -10.27089        -2.65799        -8.81034
   H        9.37742        -3.42908        11.54123
   H        8.68354        -3.74863        13.13494
   H       10.13574        -4.60620        12.62781
*
