174
 SCF done       -278.109968092772          0.000215452036
C           2.35129986957998   -1.97349667399909   -0.47179001914477
C           2.53720531537669   -1.28679136723272    0.75053531286379
C           1.70440047009278   -0.24024239071792    1.13813166247674
C           0.64940627647895    0.06457936097370    0.31095283369788
C           0.43588785971881   -0.65270010957997   -0.88990496455957
C           1.30408302673647   -1.65855492814700   -1.30611207301567
C           3.42169440786376   -3.03865680354172   -0.66123674033975
C           4.16272401192819   -2.93392887442441    0.64844283886371
C           3.63308054463313   -1.91260041238037    1.42185795075488
C           5.17917019198600   -3.63442591455998    1.28633144234515
C           5.42815270936419   -3.15030560292298    2.56059443047099
S           4.38055046567581   -1.79995768690281    2.96135365456500
C          -0.41975444383536    1.12982604320556    0.50183067109676
C          -1.31205764333699    0.85018249407818   -0.68112555531495
C          -0.78648059039648   -0.17072747522742   -1.45534865796025
C          -2.55402015296076    1.29347406160345   -1.12240719951681
C          -2.99281296913190    0.59686338897457   -2.23418507079673
S          -1.81385265777138   -0.58981731981696   -2.76590511360772
C           6.33567951956596   -3.63697802624496    3.55089512987571
C          -4.25035269575040    0.66823898602390   -2.91721916269288
C          -1.25560023304494    0.97825635719369    1.75582275344255
C           0.26798889598610    2.48112180010186    0.44249172438602
C           2.89174103811915   -4.45066213482417   -0.80324594805231
C           4.25930246621192   -2.63430688425880   -1.86136794394709
C           7.32446093907280   -4.61126703062731    3.32722031715593
C           8.09255763596975   -5.14261206686010    4.38742475123642
C           7.99045526063488   -4.70175193808185    5.71564667458770
C           7.07709890843087   -3.64828980772613    5.92887123115619
C           6.26195736642820   -3.15110546701321    4.87532095191635
C          -5.37388657763714    1.35914502798511   -2.44469848036061
C          -6.61381446678124    1.35039895718826   -3.14868067054373
C          -6.80537051832554    0.61017450107291   -4.31308294312797
C          -5.69074306375953   -0.11808877181622   -4.77760313755788
C          -4.44131073017123   -0.06608516242940   -4.10845075580417
N           6.77988125922341   -2.94298940885771    7.02496627429045
N           5.85322153674112   -2.11107927911109    6.64152069176666
N           5.49644374706018   -2.17878710584245    5.38965085494780
N          -5.53295899498185   -0.88118938491245   -5.86779338836733
N          -4.28455104477847   -1.25820370209945   -5.81432964440028
N          -3.58127183141641   -0.81488711715951   -4.81016097144843
C           8.75078825956341   -5.34501685637808    6.73596945598226
C           8.61156183132183   -5.31432324275080    8.08154905220822
C          -8.00404512011723    0.63882427742255   -5.12170756545620
C          -8.54308357793687   -0.45217454016096   -5.70055734136054
C          -3.70109287793854   -2.08375712457745   -6.83157393724743
C           5.23433308896241   -1.20032012229816    7.56078874021405
C          -8.23229652715341   -1.84787270242123   -5.37313731942339
N          -8.93400837765829   -2.69634494039973   -6.21491405739780
C          -9.81611730489170   -2.15313560573631   -7.10405356995986
S          -9.81329770856427   -0.37659781527884   -6.91465816154548
C           9.48547303623749   -6.14875392622036    8.91714888924542
N           9.12241832999657   -6.05359238449578   10.24700235689700
C           8.06219292652954   -5.25010684134027   10.56044302267420
S           7.44254334376629   -4.47302207896364    9.07388271201333
C           9.80476175157230   -6.82076999969823   11.27483369916204
O          10.39772004849106   -6.83995422282072    8.52230809660571
O           7.61186730022122   -5.06500092098248   11.65643772164830
C           1.59547067131449   -4.79039793175429   -0.44528477686157
C           1.15888339788737   -6.09870711767683   -0.55441976796393
C           2.00538104182429   -7.10029305773962   -1.00819460754952
C           3.30842170613358   -6.75841976937130   -1.34772952003747
C           3.74806880942660   -5.45344208830584   -1.24378104494276
C           3.84450271276837   -2.97684267815213   -3.14248349098568
C           4.57532600733843   -2.58248466828619   -4.24674101615563
C           5.73763141174723   -1.83583380817872   -4.10393769228045
C           6.14253537386812   -1.48757030764013   -2.82282456348999
C           5.41311544731410   -1.87756078963032   -1.71463718612847
C          -2.07869702949590    2.02778705093784    2.14898441685719
C          -2.89958043126372    1.90214103228521    3.25216963298571
C          -2.92474448222550    0.72592630056014    3.99149966116353
C          -2.11098133795302   -0.32288608503930    3.58782280157861
C          -1.28848139251050   -0.20310504542548    2.48149190252536
C           0.39928562931735    3.16952548173539   -0.75509282174861
C           1.06871705336100    4.37861410293435   -0.79936632716232
C           1.63177946747252    4.92610307759410    0.34512584200109
C           1.50395687131062    4.22987573715246    1.54004574937798
C           0.83482636339834    3.02205070489430    1.58986323543150
O          -7.53122180870478   -2.24990008971272   -4.47425522667720
C          -8.80035032600386   -4.13926907192632   -6.10309588235661
O         -10.49631737428282   -2.74758715970235   -7.88937895702324
C          -3.85117112750513    0.57824804677526    5.16451065307325
C           2.31722888605716    6.26173039409193    0.30182792997833
C           6.50894987216028   -1.37261239600003   -5.30648105541201
C           1.51181796247055   -8.50850807841358   -1.17796582919048
C           0.94283475835945   -8.70735394644503   -2.58435949577761
C           6.01253721092310    0.00086229555538   -5.76257249302455
C          -3.11654389525452   -1.22220888262265   -7.94692742175901
C           1.31049452474201    7.38772602104565    0.54587162967199
C          -5.22815375756648    0.09878019098641    4.70089444603845
C           4.32021678788127   -1.95796787348721    8.51789731042891
C           9.06113706991563   -8.11512208521279   11.57830754385655
C          -9.90005462013763   -4.73074724653159   -5.23074592897637
O           8.96318703758434   -6.18324319258303    4.11564582128636
C           8.34204905071195   -7.45452933994639    4.12408854919150
O           7.48056153967831   -5.06014865608101    2.04499394384748
C           8.79169154543240   -5.27165467783233    1.54839064817754
O          -7.60398006354942    2.11347782346385   -2.59242574650715
C          -8.93581878225733    1.63648708092061   -2.58228661858259
O          -5.21437942835940    2.07086716750983   -1.29081505582845
C          -6.21934408876340    2.04652708262139   -0.29440178807997
H           1.87555300558190    0.28275624949763    2.06629427245516
H           1.13305359652394   -2.18089924242555   -2.23459431079830
H           5.70249033104144   -4.47382584790629    0.87239081569129
H          -3.12130308365436    2.08045606125256   -0.66714250019776
H           9.54270814389027   -5.99763912674769    6.38203847124173
H          -8.43702813662508    1.60697568930203   -5.33741053028937
H          -2.91827814707238   -2.67956982872635   -6.35876537899999
H          -4.48770984196446   -2.73291840680413   -7.22045865501094
H           6.02380410075094   -0.69443184631636    8.12137269022331
H           4.67398077303016   -0.47934525474576    6.96353615153490
H          10.80602178027993   -7.03224873722916   10.89259015320386
H           9.86616359948995   -6.19771199581674   12.16998761389113
H           0.91900671917904   -4.03058037817461   -0.08263509938588
H           0.14286357868701   -6.34405306556249   -0.27871115160681
H           3.98694197336482   -7.52449207763659   -1.69606952132372
H           4.76364283584616   -5.20476268971800   -1.51643482753068
H           2.95045498719749   -3.56851510415139   -3.27577117372143
H           4.23996177021824   -2.86235047174631   -5.23556961777420
H           7.04308904070848   -0.90484249251950   -2.68858122968279
H           5.74918780489169   -1.59347434618019   -0.72835239984863
H          -2.06689351088882    2.95198841886525    1.58933533894610
H          -3.52878798267644    2.73042835997272    3.54732394453412
H          -2.11842572892431   -1.24849180631756    4.14618047433014
H          -0.66765311368017   -1.03566385801799    2.18494001020593
H          -0.02656423392392    2.76120514569030   -1.65974895410182
H           1.15757834126752    4.90313251633923   -1.74035084304773
H           1.93670705788206    4.63718895698303    2.44304291753473
H           0.74136111269051    2.49987542697059    2.53116755684828
H          -8.84701813997838   -4.55720860910777   -7.11127398793194
H          -7.81880317926802   -4.32573942413672   -5.66145360441042
H          -3.43936405577875   -0.14246863193220    5.87373088854557
H          -3.95806001858503    1.53754966887395    5.67546920663484
H           3.09603025534082    6.30346374061007    1.06606785202211
H           2.78731590207161    6.40498479865716   -0.67331593452143
H           7.57148967104082   -1.30776932671105   -5.06281047637883
H           6.38868726454067   -2.08804231259111   -6.12264965791843
H           2.33274427457750   -9.21092884087666   -1.01961789653062
H           0.73367790004077   -8.72037168820086   -0.44184383986102
H           1.70818135229765   -8.51229624232736   -3.33243762257460
H           0.58451709232379   -9.72643780004366   -2.71096601802787
H           0.11475394135232   -8.02336030701591   -2.75652922397957
H           6.13538489324333    0.73065961901109   -4.96543555083155
H           6.57045766890254    0.33856424611066   -6.63302952218848
H           4.95716928489266   -0.04588526210915   -6.02167025245964
H          -2.34740907618980   -0.56646150272645   -7.54669654422958
H          -2.67589177965648   -1.85552751691166   -8.71154367981059
H          -3.89664394701623   -0.61548062019828   -8.39996469794634
H           0.84021906066102    7.26943908381852    1.51960196864354
H           1.80516785914882    8.35584101733052    0.51382408818965
H           0.53211129479672    7.36953353130263   -0.21372282596431
H          -5.14308346862003   -0.86091012759339    4.19596762672240
H          -5.89937447230569   -0.01251209954028    5.54943931129751
H          -5.66316006471342    0.81296213671194    4.00497819417919
H           4.89536658178383   -2.70163350928387    9.06376856489648
H           3.87358065363395   -1.26684763479704    9.22653471499243
H           3.52702013291458   -2.45781803807380    7.96736539232478
H           8.98960272583661   -8.72707073908490   10.68195511759015
H           9.59494722759435   -8.67377144750459   12.34174808125768
H           8.05960244426338   -7.89532651517773   11.94073227241767
H         -10.87560097280183   -4.52503467514012   -5.66501537215186
H          -9.76984327885761   -5.80672654701926   -5.15802800090726
H          -9.85690153499043   -4.30459511122610   -4.23101654820466
H           9.12482976342385   -8.17359442335525    3.88972436877093
H           7.92228843047291   -7.67974808183711    5.11045287792497
H           7.54465229545959   -7.51654935029112    3.37565338682115
H           9.52045591636590   -4.64025869063549    2.05828632322571
H           9.09474560577973   -6.31635847623310    1.64455433618765
H           8.75390773634711   -5.00428674893887    0.49071283645270
H          -9.33715690143439    1.84831896574191   -1.58783232698828
H          -8.98158653048888    0.56207158085358   -2.76709334200175
H          -9.54367793855540    2.16055197747101   -3.32300057219372
H          -6.94688324822177    2.84756386121727   -0.44079474911213
H          -6.73276506210752    1.08318626509686   -0.26329601791422
H          -5.69344212847322    2.20009292881800    0.64977373019956
