174
 SCF done       -276.453410142906          0.000249899988
C           2.50233962949165   -1.93088472044299   -0.77389638147167
C           2.79092138835198   -1.28219738071710    0.44969063727952
C           1.93412559000472   -0.32938475895801    0.99470199067117
C           0.76987086423446   -0.06548081491485    0.31262543415029
C           0.46938238904304   -0.73120288904793   -0.89902276508515
C           1.33803679073955   -1.66658453574359   -1.45611926402278
C           3.60175321695120   -2.91827844713649   -1.13570340008903
C           4.50293007843543   -2.79553603597688    0.06794724477830
C           4.02094191567677   -1.82413531723513    0.93405139450305
C           5.68020502796472   -3.38384546137962    0.50938447171892
C           6.09180114049128   -2.87196170031107    1.73062475580657
S           5.01282575918384   -1.62309816293579    2.31779321985337
C          -0.33291875243204    0.91501157905025    0.68091846807711
C          -1.30600117993790    0.68645054314941   -0.44808183165802
C          -0.81019187953644   -0.26254203592633   -1.33065238494495
C          -2.56903135743800    1.14754624474231   -0.79431336963167
C          -3.03776600003853    0.55542167702190   -1.95598593262886
S          -1.89283872968917   -0.59084687042063   -2.62039266892290
C           7.22583521141585   -3.28512632072214    2.48630299846739
C          -4.29924859303695    0.78893949841522   -2.57774837343745
C          -1.03825518343111    0.60403421533622    1.98563625998413
C           0.27324478041182    2.30622474805449    0.68822503276649
C           2.98359024693476   -4.29020349286775   -1.31133307193097
C           4.41231049062881   -2.50655485331572   -2.35099690337955
C           7.53565978884446   -2.74213566182656    3.74014574733083
C           8.66418852057399   -3.13347259063825    4.48794692337217
C           9.52329787858725   -4.16455897056798    4.06965724675671
C           9.19716344031799   -4.74839507242027    2.82535959387239
C           8.09739871310493   -4.30615251504326    2.03634207078961
C          -4.67265591912961    0.17052120267529   -3.77604557254233
C          -5.94518205393895    0.34760761503880   -4.35829773019387
C          -6.91900489443872    1.17136854968838   -3.78763383351301
C          -6.52932552172074    1.87048185093819   -2.62647812832375
C          -5.25646849314749    1.67101302345075   -2.02130130200361
N           9.79161709286260   -5.73718594625751    2.15394789740900
N           9.09837514384392   -5.86123340340283    1.05695242292726
N           8.08621601261649   -5.05160345446689    0.92065103942570
N          -7.17360814944049    2.80110958788279   -1.91107038988352
N          -6.34569816669547    3.09531946517442   -0.95056944034381
N          -5.19902302521513    2.47460662581457   -0.94961552103075
C          10.63452336286170   -4.52924723260429    4.87756243698512
C          11.61256023417891   -5.44844543279407    4.68868578730027
C          -8.21327453511533    1.30865890156008   -4.38944395099394
C          -9.38088427802956    1.47905240187860   -3.72807491162244
C          -6.66336071376763    4.08264456912439    0.04055839518360
C           9.43959974730562   -6.83522563344181    0.05897458082150
C          -9.64701284856175    1.29183487963077   -2.30066267982596
N         -10.97622069812224    1.58869164228863   -2.02577653489627
C         -11.77972090216563    1.91445665369843   -3.06740216765621
S         -10.87433064305236    1.86216328891525   -4.57110407005950
C          12.65943340483924   -5.60040389138345    5.70662171622697
N          13.56281604639114   -6.57908820538256    5.33412226040291
C          13.33459566911211   -7.19634905256274    4.14968629801782
S          11.88894485300479   -6.56246873489207    3.37238258437127
C          14.66950330556308   -6.93391443939058    6.20010766921824
O          12.75215578271656   -4.96474735167250    6.73435064821793
S          14.26891784178019   -8.36845044655274    3.49835571854581
C           2.45517275163711   -4.66201544308638   -2.54161526501568
C           1.84154605360325   -5.88965616167583   -2.70024957114076
C           1.73453182996140   -6.77689217902403   -1.63695876242045
C           2.26005802308837   -6.39942671810276   -0.40903910159922
C           2.87130311402336   -5.16999242082822   -0.24419151192255
C           4.33530509050634   -1.23105572418088   -2.89034811331300
C           5.12615429643127   -0.87916325968884   -3.96973458960113
C           6.01500761160070   -1.78456295675552   -4.53159548190209
C           6.09830137095585   -3.05626905965117   -3.97820225815312
C           5.31024191210043   -3.41352864664656   -2.90189120973919
C          -0.90636479512567   -0.62145879530695    2.62141694937431
C          -1.59905224519624   -0.88107462804481    3.79068385749624
C          -2.44777494835466    0.06616674542051    4.34543452936421
C          -2.58845647083813    1.28619026547915    3.69576333714803
C          -1.89719641823473    1.55184267787036    2.53030034023437
C           0.28663874302101    3.09086543448734   -0.45624579389183
C           0.88934333524759    4.33545012585717   -0.44761481247621
C           1.50306376338092    4.82417247555724    0.69735563041276
C           1.49346670094397    4.03250414428941    1.83853663908085
C           0.89059144844821    2.78932402608874    1.83550044180546
O          -8.88792180695011    0.87871800524952   -1.45293866879992
C         -11.48307427856261    1.47724272484109   -0.67230802506362
S         -13.36194301773561    2.30196474685603   -2.96187662546056
C          -3.15806515823173   -0.20043838724164    5.64145514295514
C           2.11796745403316    6.19417578175744    0.71687723511649
C           6.90360908801474   -1.38296276396318   -5.67381349279628
C           1.11152121670929   -8.13012372921172   -1.82605425431400
C           2.16252983824186   -9.14265633716531   -2.28559529848674
C           8.21555488760777   -0.79603118271487   -5.14910986521003
C          -6.03138299422877    5.42396153369332   -0.31881820305658
C           1.08371155062897    7.23905252856779    1.14056600375738
C          -2.30234199750008    0.25971572349391    6.82350173509802
C          10.85577750672489   -6.60165921111418   -0.45174005884272
C          14.32352814600935   -8.13686119746007    7.06874963605789
C         -12.14245182373609    0.12392798801356   -0.43709852318603
O           8.92852505663601   -2.53410655928017    5.69668547420734
C           9.25172709033986   -1.15366660041433    5.64271613834588
O           6.69572075198503   -1.75810496206032    4.22285228475298
C           5.98290036597202   -2.09091889144029    5.40346354972366
O          -6.26968116084806   -0.32538875129819   -5.51722434696233
C          -6.43257231821347   -1.72579678675112   -5.36651962239307
O          -3.76139887614570   -0.68757901457195   -4.35683934792324
C          -3.27931053800821   -0.29976094105829   -5.63256767993602
H           2.17796222322717    0.16275057551408    1.92358806241624
H           1.09224921826710   -2.16263975556460   -2.38235292848826
H           6.23000891383693   -4.15517662820222    0.00432065911779
H          -3.14977956783391    1.87011048628054   -0.25319484463619
H          10.72141773982065   -3.97816544650557    5.80867944088847
H          -8.23994228215699    1.26191151909902   -5.47102899602713
H          -7.75078019452519    4.16302954320913    0.07644597805759
H          -6.28144704236449    3.72747323501720    1.00004584186443
H           9.36890930121860   -7.82937307381966    0.50966564034648
H           8.70114635191407   -6.73989931804712   -0.73877445303706
H          15.53424626068839   -7.15478818974004    5.56981514615675
H          14.86968665312655   -6.05835684738551    6.82216823544211
H           2.53500239971137   -3.98979167957925   -3.38394469803830
H           1.43621164682616   -6.16247058229145   -3.66447130345185
H           2.18630505622254   -7.07412338885278    0.43233242312519
H           3.26663812355887   -4.89551829011006    0.72290800096577
H           3.65388123218372   -0.50614209866909   -2.46971677996967
H           5.04847808051517    0.11716952676614   -4.38174326022882
H           6.78762411012983   -3.77553934571514   -4.39774375147151
H           5.38280253067628   -4.40876150498413   -2.48777891666755
H          -0.25934835169710   -1.37957011496018    2.20506768900143
H          -1.47990737969283   -1.83939964894843    4.27636622990820
H          -3.24995435816978    2.03555567529652    4.10743279167668
H          -2.01569970695483    2.50702081029250    2.03944245684312
H          -0.17898160901540    2.72984657872298   -1.36158317126603
H           0.88642925778849    4.93425775362416   -1.34766469370427
H           1.96790460572626    4.39267007116677    2.74056132742257
H           0.88952471297602    2.19241567685691    2.73610736206468
H         -10.62313605891695    1.60062469813084   -0.00992965835268
H         -12.20227940663358    2.28428632069987   -0.51346883049741
H          -4.11098089360212    0.33243869505522    5.65827217134765
H          -3.36216572413056   -1.26854883426117    5.73937008089696
H           2.95612700927670    6.21379631105345    1.41638938010864
H           2.49605026507818    6.44470884037043   -0.27640393288614
H           7.12246046218515   -2.25248942998546   -6.29706737589850
H           6.39855635672738   -0.63781320744159   -6.29186563261857
H           0.67101288493059   -8.46997861442496   -0.88658009190212
H           0.31803230319095   -8.07110614218613   -2.57383737255032
H           2.95664337150840   -9.22441677829037   -1.54663459069156
H           1.71316395846454  -10.12346378749606   -2.42293355097451
H           2.60424425740641   -8.82738482505067   -3.22836341177362
H           8.73999807479285   -1.52813129607350   -4.53901539340696
H           8.86070185462881   -0.50496891848807   -5.97491705072549
H           8.01853955051566    0.08035198669573   -4.53566834400090
H          -6.41267159530358    5.77626122402653   -1.27411815905899
H          -6.26652425757193    6.15982952830432    0.44475319699843
H          -4.95124077464894    5.32065341543982   -0.38741808519527
H           0.70394633689343    7.01344164908601    2.13463118461720
H           1.52795477300662    8.23165322240230    1.15505856932461
H           0.24536315371668    7.24346613577257    0.44736735471440
H          -2.09788425000800    1.32563826556295    6.74987159504006
H          -2.81490872176935    0.06813439708677    7.76339614628343
H          -1.35255830395016   -0.27047699148267    6.83107139894709
H          11.55763957092022   -6.66005344237167    0.37596798710878
H          11.11224433005625   -7.36043434991949   -1.18500005661690
H          10.93796983783341   -5.62203336068369   -0.91631744252446
H          14.11002433554750   -9.00209232414512    6.44548635199611
H          15.16274675651122   -8.37200855602168    7.71670852968020
H          13.45450153752734   -7.91822718528755    7.68506028565653
H         -11.42641064267998   -0.67688663024915   -0.60620661968832
H         -12.49854046781985    0.06546636864643    0.58725874191501
H         -12.98808495037753   -0.00534504750318   -1.10831727414441
H           8.46589583766478   -0.56474743052161    5.16482491189015
H           9.37178109584894   -0.83965446627987    6.67777747136533
H          10.19300441664865   -1.00399554347762    5.10404356373552
H           5.33002655427785   -2.95195873204289    5.23014799633529
H           6.65638517839243   -2.31097621000360    6.23402375637244
H           5.37715994838564   -1.21758918024768    5.63662845518066
H          -5.53125025206068   -2.19948838714213   -4.97005667905380
H          -7.27590968341042   -1.94291633239514   -4.70262333843644
H          -6.64349995692472   -2.10919533773172   -6.36303917797940
H          -4.08979194361075   -0.20407144677056   -6.35771070339630
H          -2.73722048688379    0.64901980208233   -5.56824123910174
H          -2.59557255803761   -1.08827415827790   -5.94053341289610
