158
 SCF done       -249.213198218157          0.000347772973
C           2.70336804641695   -1.74257688150242   -0.38488939723634
C           2.82259597451135   -1.03103762869440    0.83210688313849
C           1.90132678798286   -0.05656476336011    1.20667382468117
C           0.84806949116578    0.17485004393584    0.35329260648619
C           0.69826073105895   -0.57692892096597   -0.83571656169162
C           1.63194534352838   -1.53497494291357   -1.22161941402530
C           3.85361398237602   -2.72258664060791   -0.55615444975005
C           4.58578340622026   -2.53589724726016    0.74892175526801
C           3.98284771375717   -1.53639711709409    1.49592609396834
C           5.70674381832309   -3.08186150209118    1.36529413266791
C           5.95497782465911   -2.50797730782959    2.59909213877510
S           4.78606546874397   -1.25527063174021    2.98448059912097
C          -0.29235848187962    1.16769285242405    0.51569461670547
C          -1.14557363229031    0.82168205688119   -0.67891341129674
C          -0.52524036559344   -0.15496366423814   -1.44174494994060
C          -2.35761162986954    1.24738984046469   -1.21213718751621
C          -2.67518074817775    0.58206956185106   -2.38251837510897
S          -1.43380594744176   -0.57526410033060   -2.83384074226367
C           6.99131732319135   -2.85105635005173    3.51834316782992
C          -3.85347014669645    0.73874815893234   -3.17245257765898
C          -0.96522282126004    0.93577733932750    1.85278767813520
C           0.14131898499309    2.61429634520034    0.35231984419442
C           3.29060925850157   -4.11317920551541   -0.76537936990299
C           4.81437757393396   -2.33855572721464   -1.66808949529977
C           7.14742300611737   -2.23003174090239    4.75541642444016
C           8.13473938805695   -2.57104104156872    5.67202419776747
C           9.06889905756043   -3.57713597643073    5.43060738585370
C           8.94197298292290   -4.22266563120120    4.17212650001128
C           7.92893111930323   -3.87362008746628    3.23327990416338
C          -4.09789577359372    0.00293111214521   -4.32972489019653
C          -5.24938900114057    0.13007797829082   -5.09746873378593
C          -6.27418067535652    1.01777794299298   -4.77350331179021
C          -6.05099392888797    1.78802348519449   -3.60155481552118
C          -4.87132641777936    1.65607664814763   -2.81392389038578
N           9.66628238868786   -5.21020390363078    3.62902869165662
N           9.11431426957952   -5.41344815329872    2.46473382168292
N           8.08811426423665   -4.66783595832923    2.16356848284222
N          -6.81769877620408    2.71958576685300   -3.01907953457907
N          -6.13132109209777    3.09747038723164   -1.97624809966633
N          -4.97942154044182    2.51600887097282   -1.78963670623155
C          10.11769920171418   -4.03385923481077    6.28255349634986
C          10.52829154374643   -3.69294644988625    7.53225658839542
C          -7.50253512968742    1.24168110853186   -5.46307566014340
C          -8.07258998044586    0.69443815348886   -6.56851048233831
C          -6.64041857991061    4.07060422217196   -1.05285647386090
C           9.58409477761790   -6.44017052578321    1.57930130697614
C          -7.63896298381424   -0.35534795597992   -7.48818347018333
N          -8.60016585696577   -0.56820096695745   -8.46544855171306
C          -9.74464855025252    0.17534348502621   -8.44200908554497
S          -9.66148074650074    1.29692176752984   -7.06376531464955
C          10.04347561212174   -2.70970987649878    8.49870409354557
N          10.80803672386198   -2.75214651653052    9.65537333825858
C          11.83647754979615   -3.64597410888172    9.73711920888243
S          11.91150938723791   -4.56171391727020    8.21392147573911
C          10.50015544909210   -1.88956630954168   10.78407741552257
O           9.12130475415169   -1.93116350003910    8.37902068213301
O          12.57908565911618   -3.79744285836843   10.66471124340653
C           2.94054458930130   -4.53329568520343   -2.04298859466934
C           2.38148974042390   -5.78056263751937   -2.24336691628402
C           2.15321245101131   -6.63982014409247   -1.17620136901221
C           2.50075450539551   -6.21402410508528    0.09836813681876
C           3.05653972678266   -4.96452652714840    0.30483957858853
C           5.79514431555879   -3.24563422934956   -2.05223135631821
C           6.71277653698793   -2.91586188553294   -3.03002267399421
C           6.68316386163737   -1.67010753785356   -3.64433632499670
C           5.70925469001484   -0.76414474254369   -3.24890201274270
C           4.78791355679248   -1.08902777051704   -2.26923466081626
C          -0.47523528734026    1.55988171581324    2.99357256309261
C          -1.05070311230586    1.32106395150744    4.22672914248529
C          -2.12547982426150    0.45095220553575    4.35595881661692
C          -2.60751601062560   -0.17462057248922    3.21434168233775
C          -2.03274270578168    0.05825368114553    1.97830953678742
C          -0.76258902030311    3.62607213789046    0.65534200008636
C          -0.42012733563017    4.95144492548765    0.47422609609588
C           0.82909729317217    5.30392987354160   -0.02160924572930
C           1.72465347669998    4.28995038342318   -0.32973041728109
C           1.38617020963455    2.96023114356716   -0.15163297560182
O          -6.60429722310329   -0.98775191112725   -7.47109131945428
C          -8.41764414092984   -1.59495080932518   -9.47800637937810
C          -2.78099962336049    0.23253883601635    5.68925481993644
C           1.21658614811888    6.74668247434440   -0.17405445844749
C           7.64709002445687   -1.33121658369148   -4.74468136848102
C           1.59140329428020   -8.01357532832375   -1.40468597723108
C           2.71712096761418   -9.01332650958976   -1.67727509847246
C           7.05403964680858   -1.70302369139851   -6.10533448700316
C          -3.90512961543543    1.24785957496697    5.90509962476240
C           1.84450841786739    7.27183155572740    1.11861991045642
O         -10.65787597796841    0.10554154797328   -9.21401513517687
C           9.61699137521871   -2.60563313430712   11.79759910125497
C          -9.05752463191316   -2.90865997308929   -9.04809447837497
C          -7.29703960803269    3.38070630619942    0.13915408438025
C           8.76647728829456   -7.71547959401548    1.76151833437909
H           2.01583925775761    0.48486121627525    2.13311508485784
H           1.50689605957751   -2.08956185721366   -2.13881586908841
H           6.32601520056296   -3.86521723681536    0.97055777599030
H          -3.00621326683889    1.99222679779762   -0.79085592841721
H           6.45691739322302   -1.44123437034187    5.01829951117970
H           8.17402388734505   -2.03753599925536    6.60644924798221
H          -3.34987898463699   -0.71052147528480   -4.64529627134589
H          -5.35196569540066   -0.48539919443831   -5.97501221812586
H          10.69824356440041   -4.82627940374596    5.82125578828653
H          -8.10001015308495    2.01201400040217   -4.98624005671316
H          -5.80256417399248    4.68740153328920   -0.72069815332397
H          -7.36582697199044    4.68059126576168   -1.59358685784066
H           9.48778125325377   -6.06925553562642    0.55668018984600
H          10.63389759588872   -6.61814804757196    1.81818556446125
H          11.44607045986730   -1.59397434974445   11.24323884692137
H           9.98815977853182   -1.01414940796294   10.37800184622704
H           3.11796319198487   -3.88359812369728   -2.88808075229905
H           2.11554276512131   -6.09097008101938   -3.24398397285247
H           2.32997286829567   -6.86616452079348    0.94335674555047
H           3.31173788000076   -4.65242228768803    1.30708368515641
H           5.83072186359361   -4.21978366812478   -1.58652685880162
H           7.46611832531511   -3.63487717762812   -3.31973548786516
H           5.67106537941466    0.21243425190836   -3.71059104061462
H           4.04321568858888   -0.36348390910708   -1.97647755177547
H           0.35529374141862    2.24664690277638    2.91389553621902
H          -0.65728609510897    1.81624883883107    5.10328021822659
H          -3.44145288149025   -0.85789175374308    3.29280296763328
H          -2.42081277022233   -0.44596262850436    1.10525664298568
H          -1.73751744772600    3.36976173114094    1.04384917571696
H          -1.13414932272951    5.72563948266401    0.71761117928644
H           2.70110497994971    4.54121118664914   -0.71926697415910
H           2.10012714803636    2.19062413118907   -0.40573716732412
H          -8.87261816957079   -1.23223117925790  -10.40224545777691
H          -7.34023753147687   -1.71756982042381   -9.61047998086840
H          -3.19385490293300   -0.77708311834831    5.73830074337731
H          -2.04261062275389    0.33903750275629    6.48643654319735
H           1.93329626207566    6.85317121404206   -0.99083683561396
H           0.33424295545285    7.34371306837528   -0.41368795078373
H           7.86733248739893   -0.26186592960121   -4.72854366221581
H           8.58257463629177   -1.87512976175741   -4.59895643508495
H           1.02931007445966   -8.33520264376071   -0.52565549986236
H           0.91097516645927   -7.99731056526797   -2.25845914524743
H           3.39817509285364   -9.05584702106119   -0.83005917396966
H           2.31108357832740  -10.00783006550724   -1.84701427973522
H           3.28346207839790   -8.71429364174421   -2.55657846159555
H           6.12701405769787   -1.15978676878720   -6.27457839099369
H           7.75039701382745   -1.45982135427626   -6.90449813946171
H           6.83762873686161   -2.76838831606362   -6.14480191282668
H          -4.65863176951558    1.14861123143771    5.12677325154045
H          -4.38028266128392    1.09131576794627    6.87073308109977
H          -3.51065361577385    2.26109370903717    5.87191808166950
H           2.73461319657880    6.69796401817363    1.36666032646620
H           2.12414172230575    8.31710886714967    1.00923575355389
H           1.14087635055494    7.18458744292524    1.94358196729845
H          10.12769968588867   -3.48373902834119   12.18600637240331
H           9.39325688182945   -1.93714869337821   12.62400029807167
H           8.68297746123612   -2.91287776209419   11.33250270028475
H         -10.12610554431733   -2.77391309437142   -8.89692655799225
H          -8.90539422836741   -3.65883407899492   -9.81877610320531
H          -8.60800766740830   -3.26078365802548   -8.12236271076649
H          -6.57368915167364    2.75082615587368    0.65138228380232
H          -7.67165159033961    4.12458545759234    0.83631332388104
H          -8.12750955355282    2.76327170821458   -0.19436582277946
H           7.71809466506116   -7.52148586375764    1.54787730709315
H           9.12666904559957   -8.48503762643504    1.08491549960954
H           8.85654128379294   -8.07673318649418    2.78305331675933
