107
 SCF done       -200.517175785840          0.000423444391
S           1.80685544654667    0.49510902733789    0.63428556580926
N           1.11688026418940   -0.94465554765919    0.45799132239913
C          -0.18758666118352   -0.78157131893127    0.25849025924117
C          -0.56549028389456    0.60539780317523    0.26242794130776
N           0.48621787028756    1.39774598931644    0.46606346842598
C          -1.13685267251371   -1.81707880435258    0.05591826904757
C          -2.45116300650238   -1.40123441265176   -0.13050625013286
C          -2.82377045401265   -0.06333980361561   -0.10695620711837
C          -1.92559463481935    0.98102165423124    0.08735083463597
C          -2.34310639683303    2.34710686597223    0.13631354806394
C          -0.73064722507970   -3.18734600594192    0.06705161815164
C          -1.49989735121919   -4.30628884164847   -0.23216015464879
C          -0.78791301579723   -5.48607556999109   -0.09531464038309
C           0.53124263144861   -5.27369167540767    0.31954192437739
S           0.90384441697794   -3.60961356411892    0.51685448744976
C          -1.06544358399554   -6.95803602353968   -0.27816411091833
C           0.27096695663284   -7.53693701243029    0.12033105621080
C           1.18248411009532   -6.51625367626936    0.45803343328169
C           0.82458691392757   -8.78532886389308    0.24173382871234
C           2.16349650416426   -8.75078285304635    0.67747287749100
S           2.71816087299410   -7.09755375211838    0.92769528263093
C          -1.54169615282269    3.47737255611159    0.18870875687419
C          -2.28261197653405    4.64716335722254    0.25797097058034
C          -3.66172525044838    4.41923368701876    0.26841992379805
S          -4.05027028974547    2.75162064433417    0.16929110837809
C          -1.98455700383210    6.12301029751881    0.34260955743745
C          -3.38498708182996    6.67910941533384    0.43582864700711
C          -4.34383087306795    5.64735399871327    0.38236718928882
C          -3.96356647106605    7.91449793488551    0.57386514951756
C          -5.36888461487800    7.85758286270746    0.63980735524727
S          -5.95523423574810    6.20181557836404    0.50690664451934
C           2.90150297501032   -9.91923356065361    0.87255176271009
C           4.19847912768206  -10.10320051371695    1.29840711032842
C           4.85847884388281  -11.37992337813457    1.46859505813559
C           6.21732114250635  -11.10932057457485    1.94120775117426
C           6.38715021258287   -9.71920195833489    2.05789905834348
C           5.13697662404530   -9.04000496459128    1.66001695431805
C           7.26552775922349  -11.95516535495895    2.26179283328941
C           8.46467834285522  -11.39732435590436    2.69422192041276
C           8.62236934114890  -10.01281771070301    2.80773152179853
C           7.57285130961183   -9.16056429562109    2.48612598095959
C           4.34065716314559  -12.63035566608791    1.24144021382840
O           4.94766493005262   -7.83667829598776    1.64392118346153
C           5.05732519200966  -13.83013241043111    1.43405229817966
C           3.03632139529075  -12.91595086363828    0.78833696588238
N           5.57822917883998  -14.84412142230743    1.56939580175737
N           1.99566349872674  -13.23875017421218    0.42299483786260
Cl          9.76971758224883  -12.44061297898659    3.09413505116920
Cl         10.11653517123326   -9.35869773389956    3.34612011314291
C          -1.40775170036925   -7.28899504650029   -1.74353224634716
C          -2.19785568389043   -7.44827509847009    0.64199837054075
C          -0.34043812052013   -6.82459606598588   -2.72685447048907
C          -1.93845459512898   -7.15608544011811    2.11467769115611
C          -1.25869990580504    6.62522894264355   -0.92009155303544
C          -2.01397093972460    6.31679510836095   -2.20704900465224
C          -1.15027268421999    6.46460784936948    1.59052399376259
C          -1.79396743760191    5.98870801496666    2.88700020695993
C          -6.14107107904548    9.00731560181987    0.81399411864010
C          -7.50308016274086    9.16398232594928    0.94363697565145
C          -8.19340484591029   10.41835805466372    1.15587398292870
C          -9.62046490309275   10.11564338667993    1.27661487788754
C          -9.80299593435815    8.72969016800247    1.13141196781017
C          -8.49189834784801    8.08564377543163    0.91236890476526
C         -10.71796928788384   10.93007819774417    1.49829662908750
C         -11.97860551212117   10.34560900070520    1.57180470813766
C         -12.14881646439018    8.96556465855039    1.42528897351458
C         -11.04979543791175    8.14491829323609    1.20174481932214
O          -8.29542111941254    6.89531538920591    0.74210852717883
C          -7.64717071155445   11.67465543522868    1.23521623089008
C          -8.39647050704156   12.85091061254975    1.44824367853905
C          -6.27778036800054   11.98975194362675    1.11735820535660
N          -5.18480832426865   12.33452094599029    1.03282086404970
N          -8.94117950316043   13.84673558339341    1.62046645804419
Cl        -13.71971002919005    8.27779383651492    1.52225396367668
Cl        -13.34464176390583   11.34933459053767    1.84926533749319
H          -3.22025537387758   -2.14109512240239   -0.28485372964376
H          -3.86708306493429    0.18121215786237   -0.24498713469228
H          -2.52714022692351   -4.24706659033516   -0.54195643581864
H           0.32304593805293   -9.71533927729720    0.03940965013538
H          -0.46980090570776    3.41091524688913    0.18065134495153
H          -3.43493967944891    8.84921590840729    0.63827994944660
H           2.33776361918609  -10.81665234375155    0.64824264194855
H           7.18407964896720  -13.02696877008475    2.18800325913572
H           7.67981257307680   -8.09055510632560    2.56840991949099
H          -1.53615134322496   -8.36947234898157   -1.83067274629653
H          -2.35984503220450   -6.81526564438042   -1.99095256558648
H          -3.12694804618226   -6.96456440576700    0.33380627817555
H          -2.31559559088546   -8.52417832273165    0.50016297642675
H           0.61557237653455   -7.29518084303332   -2.50996103999528
H          -0.63020788607083   -7.08883292829737   -3.74085759344632
H          -0.21147889428280   -5.74586074078724   -2.67692551982266
H          -1.83571225392629   -6.08668630154114    2.28407283062508
H          -2.76651739341686   -7.52139091156419    2.71705687458144
H          -1.02772473063989   -7.64613105089043    2.45058314754923
H          -1.12008345781955    7.70424999557181   -0.83011516094210
H          -0.27226173298349    6.15913216258121   -0.95785158852143
H          -2.99802129381838    6.77978928114347   -2.19877370960674
H          -1.46234569400428    6.70049310291533   -3.06169980210508
H          -2.13937921324168    5.24393016997593   -2.33413766562603
H          -0.16682652575139    6.00303991098577    1.48357504984494
H          -1.01394306065703    7.54702638874612    1.62786701998963
H          -1.91254204117808    4.90761512472108    2.88465486886441
H          -1.16954106401306    6.26283974176793    3.73361702023650
H          -2.77309053522731    6.44246000033758    3.02230484940565
H          -5.54575996175154    9.91075875964501    0.86706057325019
H         -10.62865944494350   11.99724260552832    1.61698918396829
H         -11.16566088004104    7.07880235276337    1.08726896869896
