# ORCA input file
# SCF done       -184.308933424867          0.000597020151
! wb97x-d3 def2-SVP def2/J RIJCOSX Grid4 TightSCF
%maxcore 5000
%tddft
    Mode sTDA
    Ethresh 5.0
    maxcore 5000
end

%pal
  nprocs 6
  end
* xyz 0 1
   S        0.85969         0.18276        -0.71061
   N       -0.04750        -1.14345        -0.67482
   C       -1.28939        -0.81687        -0.32242
   C       -1.42215         0.59954        -0.08883
   N       -0.27139         1.24078        -0.28200
   C       -2.40220        -1.69075        -0.17724
   C       -3.59650        -1.09308         0.20886
   C       -3.72126         0.26851         0.44568
   C       -2.66598         1.16306         0.30884
   C       -2.81871         2.56241         0.55790
   C       -2.29851        -3.09628        -0.41637
   C       -1.16509        -3.82122        -0.74805
   C       -1.42230        -5.17718        -0.89691
   C       -2.77088        -5.48925        -0.70616
   S       -3.71976        -4.11850        -0.30534
   C       -0.63071        -6.41286        -1.26170
   C       -1.73052        -7.45213        -1.25694
   C       -2.96463        -6.86690        -0.92516
   C       -1.82138        -8.81409        -1.45594
   C       -3.12282        -9.29433        -1.30951
   S       -4.24568        -7.99160        -0.89192
   C       -1.88314         3.56827         0.37550
   C       -2.37599         4.81950         0.71628
   C       -3.69390         4.77587         1.17565
   S       -4.33939         3.18697         1.17335
   C       -1.84056         6.23167         0.74892
   C       -3.05700         6.97505         1.24777
   C       -4.11261         6.08119         1.50196
   C       -3.39532         8.28842         1.49784
   C       -4.70128         8.42731         1.96879
   S       -5.51508         6.85924         2.08019
   C       -3.68884       -10.56979        -1.45053
   C       -3.13254       -11.79657        -1.71824
   C       -3.91741       -13.01256        -1.85101
   C       -2.98762       -14.13799        -1.93367
   C       -1.67668       -13.63548        -1.93924
   C       -1.70489       -12.16322        -1.83829
   C       -3.19498       -15.50675        -2.00437
   C       -2.08794       -16.34173        -2.08474
   C       -0.79622       -15.83574        -2.09733
   C       -0.57766       -14.46757        -2.02304
   C       -5.28081       -13.12008        -1.94993
   O       -0.72573       -11.44215        -1.85052
   C       -5.96937       -14.34350        -2.09415
   C       -6.20903       -12.05710        -1.96331
   N       -6.60158       -15.29504        -2.20911
   N       -7.03875       -11.26337        -2.00851
   C        0.40133        -6.78471        -0.17840
   C       -0.02115        -6.21425        -2.66377
   C        1.54127        -5.78909        -0.01136
   C        0.78021        -7.39766        -3.18902
   C       -1.40240         6.71780        -0.64161
   C       -2.48499         6.52956        -1.69808
   C       -0.67826         6.27871         1.76567
   C       -5.45067         9.53789         2.38314
   C       -5.16917        10.88212         2.39427
   C       -6.08984        11.88196         2.90849
   C       -5.55528        13.19937         2.56733
   C       -4.30736        13.02831         1.94716
   C       -3.99387        11.58972         1.84217
   C       -6.05605        14.47832         2.75413
   C       -5.29583        15.55749         2.32208
   C       -4.06004        15.37931         1.71727
   C       -3.55161        14.10314         1.52201
   O       -2.96739        11.12878         1.38115
   C       -7.22622        11.66870         3.64568
   C       -8.06107        12.69939         4.12754
   C       -7.72432        10.42073         4.07701
   N       -8.19468         9.45857         4.49336
   N       -8.79075        13.48005         4.54766
   C       -0.08595         7.66120         2.00258
   H       -4.46798        -1.71932         0.33229
   H       -4.68487         0.65268         0.74691
   H       -0.21395        -3.33948        -0.87493
   H       -1.00637        -9.47393        -1.68852
   H       -0.89731         3.36147         0.00328
   H       -2.76177         9.14238         1.34484
   H       -4.76313       -10.56722        -1.30706
   H       -4.18531       -15.93090        -1.99343
   H       -2.24106       -17.40920        -2.13852
   H        0.04263       -16.51222        -2.16344
   H        0.41748       -14.04986        -2.02831
   H       -0.13372        -6.87463         0.77076
   H        0.80442        -7.76903        -0.41960
   H       -0.84309        -6.00591        -3.35392
   H        0.61244        -5.32632        -2.63496
   H        1.16403        -4.81007         0.27051
   H        2.20821        -6.13439         0.77560
   H        2.12026        -5.69201        -0.92544
   H        0.16447        -8.28990        -3.25122
   H        1.14637        -7.16890        -4.18759
   H        1.63729        -7.60920        -2.55609
   H       -1.15210         7.77672        -0.57644
   H       -0.50635         6.16759        -0.93547
   H       -3.38795         7.07031        -1.42343
   H       -2.13858         6.90863        -2.65642
   H       -2.73557         5.47765        -1.81612
   H       -1.04692         5.88226         2.71532
   H        0.10333         5.60518         1.40730
   H       -6.43324         9.26489         2.75029
   H       -7.01371        14.64951         3.21715
   H       -5.67970        16.55691         2.46218
   H       -3.49295        16.23985         1.39552
   H       -2.59416        13.93859         1.05188
   H       -0.84007         8.35147         2.36875
   H        0.70109         7.59102         2.75016
   H        0.34856         8.06723         1.09364
*
