120
 SCF done       -225.093790934621          0.000927765135
C           3.84029939706457   -1.73507207323038   -9.60712056102178
O           2.97085532247764   -2.31304063940947  -10.22760092526841
C           5.18662280265605   -1.41510674235262  -10.13228559039431
C           5.71092161445019   -1.72816882524727  -11.37070010641231
C           7.01165714200881   -1.33280982359834  -11.63587878074956
C           7.75312736843152   -0.64353407415363  -10.67601934516537
C           7.22354552899714   -0.32609250018030   -9.43410309290885
C           5.92172555292556   -0.71777078889352   -9.16187759153088
C           5.08155861412886   -0.54225661857086   -7.97684010834968
C           5.44622782929048    0.17444986979748   -6.86666745067863
C           4.65014063908668    0.42874277940620   -5.72874106921219
N           4.07980482221242    0.70299217993920   -4.77003771944500
C           6.70101423757727    0.80263836644254   -6.70983120892902
N           7.69965474843362    1.33228208677485   -6.51151218880078
C           3.81863930064461   -1.21593508605725   -8.22649647993035
C           2.84475843459573   -1.36733061045546   -7.26752417123203
C         -18.06268571209474  -14.21240072924802   -5.45767248531147
O         -17.27388044156120  -13.62411633989215   -4.74023440945507
C         -19.15824452960697  -15.09529706648503   -5.00568601432214
C         -19.50640869438904  -15.43771576220258   -3.71466767210112
C         -20.58396650741746  -16.29263104417995   -3.54623615082742
C         -21.28240806999922  -16.78040109720772   -4.65062479203522
C         -20.93099468348348  -16.43527023254104   -5.94777066455947
C         -19.85373969686865  -15.58173747738683   -6.12514145067964
C         -19.23660648886831  -15.03663933195863   -7.33681695059648
C         -19.65581901323860  -15.29676865787667   -8.61626174166712
C         -19.07762256977138  -14.78261289736126   -9.79570876337515
N         -18.67033077961576  -14.40587637622110  -10.80191793925371
C         -20.74613815989962  -16.13359625698882   -8.93671507672512
N         -21.62323143265862  -16.79672983287906   -9.26600813320657
C         -18.13245286109797  -14.19823423551927   -6.91923501635831
C         -17.28256138583815  -13.51025162349716   -7.75552807300606
C         -16.18893125472014  -12.69039346467562   -7.46849840094493
S         -15.57036061663484  -12.27762544807003   -5.87206122282980
C         -14.34317525106656  -11.33845220271101   -6.59806639128833
C         -14.39200380307383  -11.33150829752064   -8.00588633614776
C         -15.42886317080274  -12.08846608353239   -8.48919624747207
C         -13.24916388387216  -10.54618470454362   -6.19152925402487
C         -12.59750979532636  -10.03451152318701   -7.31664033161807
C         -13.27572387195354  -10.49441928687251   -8.58291831336550
S         -12.51236331366401  -10.05911345727163   -4.71988293139926
C         -11.31163201241413   -9.15980583737949   -5.62052044940513
C         -11.50097650352338   -9.24936917367091   -6.99118747542364
C         -10.28721909929753   -8.45835376397622   -4.93414212353523
C          -3.92340895230863   -4.52511968515737   -5.58973230060208
S          -2.73664360340867   -3.61026308528726   -4.68812664451423
C          -1.81687752209896   -3.40101392241392   -6.12179628426400
C          -2.40898712279978   -3.99084223318421   -7.24262034115746
C          -3.59931348637442   -4.63582684578774   -6.93286184383118
C          -0.57860247610338   -2.83837600599489   -6.49038248740447
C          -0.36799714472343   -3.06955160996042   -7.86050458491283
C          -1.55212634586998   -3.78672879934522   -8.46865305745405
S           0.71616731339691   -2.01289515399495   -5.75330335152594
C           1.58395943263142   -1.97678505806251   -7.29732039335922
C           0.83941093824964   -2.58271803728457   -8.31183718873288
C          -2.21596883624315   -2.82957879044542   -9.48477016255176
C          -3.53477545224999   -3.32132429951172  -10.06535547477901
C          -1.14708307305553   -5.11764594310089   -9.12127456667325
C          -0.37845822459932   -6.02922061225072   -8.17181230998242
C         -13.81776222143334   -9.30763657240824   -9.40105597533425
C         -14.75690278974395   -8.41138256730727   -8.60332087443356
C         -12.32958201084502  -11.33930849328154   -9.45685101850905
C         -11.73567278368598  -12.53113991171329   -8.71612481743274
F         -22.31939926049199  -17.60360137118223   -4.45950244170644
F         -20.95787495008646  -16.65342471727316   -2.31283290999832
F           7.56305350076078   -1.61658275669880  -12.82239623579217
F           9.00934040748723   -0.27838325168031  -10.95589486144590
S          -9.06929961809176   -7.56085500439742   -5.80187608255527
C          -8.30234764426591   -7.08239733413965   -4.31772165337422
C          -8.96102461398254   -7.60316601360805   -3.21324880274516
C         -10.07516342935896   -8.38199229816489   -3.58010581098079
C          -7.12773065901395   -6.30891091345133   -4.31630888174494
C          -6.54633073440764   -5.66763708202648   -3.23174212952400
C          -7.00548397222592   -5.55159973279943   -1.83847857628596
N          -7.86486425731543   -6.48133455542276   -1.26440211866759
C          -8.61407180941502   -7.52928158812360   -1.78565389529312
S          -6.22653045921103   -6.03680815519009   -5.77697082566848
C          -5.04831995039386   -5.07544729906000   -4.92279326847129
C          -5.37641036791865   -4.97246862137755   -3.59425472348248
C          -7.93464680202099   -6.38315899362438    0.20167056579108
C          -6.79909692617612   -7.15611702691915    0.85813546862612
O          -9.07381113368709   -8.36338251653666   -1.03139605058105
O          -6.55917786222660   -4.65039282473225   -1.15674891207249
H           5.13285224766219   -2.26239688039799  -12.10769476589072
H           7.84058780277693    0.20627756960571   -8.72954041871824
H           3.08855053959845   -0.96317540108462   -6.29221508113287
H         -18.96290829017732  -15.05727726857078   -2.86458092475121
H         -21.50425047602178  -16.84108890448533   -6.76479672325539
H         -17.46744867116470  -13.60981067143070   -8.81814552068745
H         -15.66653516205789  -12.23357506609108   -9.52825588421948
H         -10.85219300553900   -8.75685328121602   -7.69362234618458
H          -4.21585863167226   -5.18418335100333   -7.62259424106703
H           1.20744937376020   -2.65445133957309   -9.31850283828301
H          -2.38516462275717   -1.87219139870665   -8.98554661672848
H          -1.50249587902600   -2.66057925210774  -10.29335793174586
H          -4.27743508075420   -3.45522268452366   -9.28357966265945
H          -3.91394765383628   -2.58377831898852  -10.76885053782431
H          -3.40907561330070   -4.25981857151576  -10.59794718581232
H          -2.04747090132236   -5.63251113019826   -9.45764851205901
H          -0.52944314541484   -4.89891434779542   -9.99384209451181
H          -0.97212232636680   -6.25768651146294   -7.28921672831207
H          -0.13456514765135   -6.96339809118714   -8.67139489652275
H           0.54935749843991   -5.56127362955429   -7.85164115727822
H         -12.97027478821409   -8.71933869244345   -9.75825595030596
H         -14.34480737846123   -9.70293148248485  -10.27123213965419
H         -14.24586162177981   -7.98212060330403   -7.74458584597729
H         -15.11487418349646   -7.59864958052828   -9.23022764466024
H         -15.61694040626254   -8.97299648087276   -8.24635980946482
H         -12.88903011478202  -11.69327758723186  -10.32457149948548
H         -11.52359162303652  -10.69563612098921   -9.81450939948800
H         -12.51979557886321  -13.19469303802940   -8.35930594125725
H         -11.08674358759881  -13.09501883340911   -9.38142400264251
H         -11.14815035596636  -12.20262762768923   -7.86190585220078
H         -10.69593101542096   -8.87443869657419   -2.85318268648100
H          -4.79864839331747   -4.41165214876837   -2.88142156452435
H          -7.87550997496165   -5.32546938029867    0.46050960081157
H          -8.89626204961500   -6.79108312626365    0.51348524627765
H          -5.83813679092021   -6.75534915118742    0.54380804656126
H          -6.87732160527077   -7.06729159522764    1.93779910613429
H          -6.85597823641239   -8.20787293716204    0.58830142842259
