103
 SCF done       -206.017552557821          0.000872291820
C          -6.65188779169057   -1.56329343227819   -0.30329763518270
O          -6.39495109458746   -2.72175670523057   -0.02512493019921
C          -7.66389384769947   -0.71735952932902    0.36422062158491
C          -8.50842779006691   -1.04812228775921    1.40332812158716
C          -9.38126941243713   -0.06551694941653    1.85742780526953
C         -10.34663949275005   -0.36028479675389    2.97237900451052
C          -9.40302581359311    1.19958325097695    1.27911847339497
C          -8.54914709489369    1.52276606536238    0.23408357498441
C          -7.66987707120264    0.55583942393689   -0.22869657767528
C          -6.66186531477681    0.58064280864578   -1.29367351343852
C          -6.36399974998112    1.67627413372690   -2.06355626187465
C          -7.00121768733399    2.92921575916636   -1.93952799185330
N          -7.47622545427487    3.97322890539793   -1.89321819583872
C          -5.38209906152428    1.73151681528626   -3.07486326403173
N          -4.59987002417358    1.85772821393518   -3.90691312786409
C          -6.05255092469954   -0.73108292840286   -1.34433650817849
C          -5.08288278737675   -1.12496798278834   -2.24097425228970
C          -4.39764812694608   -2.33189847379530   -2.37604421381605
S          -4.62874391078284   -3.74848915748836   -1.34642751169386
C          -3.39327849254092   -4.58775528901911   -2.20285651308508
C          -2.84674483566453   -3.80822529547157   -3.24033196009557
C          -3.40447023658867   -2.54445701784338   -3.35362152367889
C          -2.93619561263541   -1.54241427427461   -4.35665184133931
C          -1.86471391048406   -0.62908970279783   -3.75400212861807
S          -1.57795163867612   -4.62246973969413   -4.13852000623828
C          -1.78534859353226   -5.99996112241750   -3.11492006239514
C          -2.77480322631561   -5.83802236249948   -2.13776895292527
N          -2.87871404839576   -6.97672132329188   -1.38693542484859
C          -3.94879740157292   -7.06328362990073   -0.41934141996158
C          -1.94284963959421   -7.88495212214706   -1.84429631955506
C          -1.26475912845089   -7.28752620611853   -2.95403796308732
C          -0.29698358152666   -7.97589833763497   -3.71777792288367
N           0.37878231948078   -7.55170143615676   -4.77421049376132
S           1.32959821921465   -8.75608235907086   -5.28975247965295
N           0.91680484221403   -9.86239465247037   -4.18286732142878
C           0.01860963593876   -9.32641895455816   -3.37122490367689
C          -0.59838115262610   -9.89743704467146   -2.23682370685724
C          -1.55204114049583   -9.19307372284189   -1.43781467882999
N          -1.87133600762839   -9.99912656851739   -0.35971367557526
C          -2.68161210541587   -9.80120160462213    0.81928250221468
C          -4.03874632784232  -10.49330828021354    0.69257364666390
C          -1.17790457360646  -11.17134181440116   -0.47986558788680
C          -0.38443062556632  -11.14063175535843   -1.63169663220629
S           0.58192305498327  -12.55522252453593   -1.85246650391479
C          -0.07577372253471  -13.20833970433830   -0.36721154995289
C          -0.99597068506294  -12.34730194824125    0.25167576713554
S          -1.54883830186345  -13.00113529478572    1.74407229094297
C          -0.57629859553226  -14.45634097873062    1.50051320080020
C           0.17138018599924  -14.39885888944596    0.32550704677498
C           1.25153335666429  -15.34526431519649   -0.08662778723267
C           0.97995791928401  -15.97556875769337   -1.45291818519936
C          -0.56154352716010  -15.37517691220702    2.56805702173920
C          -0.38490981395534  -16.73275463579714    2.49051582801768
C          -0.09263167908892  -17.62237813534745    3.58948986626011
C           0.31545036923788  -17.25701741642888    4.84668102871647
C           0.60899481866789  -18.16849387150937    5.88178451977103
N           0.85352272214554  -18.86009460074066    6.76466504481197
C           0.52127922440762  -15.92498301335380    5.26394051836805
N           0.73231081693050  -14.86774489912744    5.65982896717088
C          -0.20511248891431  -18.99451673136335    3.09238456654810
C          -0.01682088478376  -20.21648412402794    3.71972041548157
C          -0.17181117512996  -21.37652850366890    2.97471675267702
C          -0.51846955033163  -21.32046702536113    1.62872407461388
C          -0.63334598934566  -22.60339081822291    0.85175823502137
C          -0.72021658127852  -20.10266876821521    0.98698088129391
C          -0.55533687851430  -18.95367902899821    1.73230004427542
C          -0.71340441128610  -17.54517713506814    1.29944776945868
O          -1.15226032054965  -17.16252339952322    0.23741591740708
C          -3.59716697574391   -6.34939013056941    0.88600135005307
F           0.56785935960683  -23.02566144047882    0.40961166593806
F          -1.13495857605150  -23.60817005458054    1.58557090810242
F          -1.41379350586445  -22.49031122348741   -0.23042442774546
F         -10.06532044042117   -1.49395669533825    3.62617630506626
F         -10.37597871898565    0.61739890871649    3.89287296496939
F         -11.60932781271399   -0.48521749447976    2.52044698817542
H          -8.48270093866357   -2.03337333360325    1.84244276925208
H         -10.09357247111134    1.93998165428983    1.65344402787004
H          -8.58707594121482    2.50982680297121   -0.19534149174414
H          -4.78462234382178   -0.38073846828158   -2.96652874728615
H          -2.50675256462524   -2.08320430383297   -5.20235837435930
H          -3.76471378039689   -0.93543633536483   -4.72368050893588
H          -1.01356843938282   -1.21596536671247   -3.41700461883553
H          -1.52604353592348    0.08134081259531   -4.50223547357595
H          -2.26258910932398   -0.07311470956262   -2.90850975448257
H          -4.81982473611832   -6.56574474551694   -0.85832254220553
H          -4.21311196353859   -8.10445804439926   -0.25847086686744
H          -2.14014648061795  -10.24837800023702    1.65979957879757
H          -2.78348290233874   -8.74026526574672    1.02375599556292
H          -3.90493324067845  -11.57084441272467    0.64565982706688
H          -4.65344786204139  -10.26098500628771    1.55743920026432
H          -4.56355953282751  -10.18154921606879   -0.20836948886773
H           2.18428759049237  -14.77438029339789   -0.14186725124950
H           1.37415099693751  -16.12420002761329    0.66629734182583
H           0.92894777901673  -15.21079986506315   -2.22316685457611
H           1.78003756132474  -16.66779929508988   -1.70165956271741
H           0.03901501210617  -16.51745790613457   -1.43378026424806
H          -0.74121150327264  -14.94140083274278    3.54538943500874
H           0.24331431053946  -20.28385998090765    4.76305145936845
H          -0.02714822718391  -22.33711222087582    3.44517550704495
H          -0.99436791072369  -20.05004088445358   -0.05537576506879
H          -3.54169780465314   -5.27711859554874    0.72027320799852
H          -4.36851113057814   -6.53839637718634    1.62691006390469
H          -2.63745231040442   -6.67927473911055    1.27921341880363
