# ORCA input file
# SCF done       -189.554662887018          0.001009567188
! wb97x-d3 def2-SVP def2/J RIJCOSX Grid4 TightSCF
%maxcore 5000
%tddft
    Mode sTDA
    Ethresh 5.0
    maxcore 5000
end

%pal
  nprocs 6
  end
* xyz 0 1
   C       -0.33889        -0.62916        -2.59067
   O       -0.54698         0.56910        -2.67625
   C       -0.47595        -1.61224        -3.68607
   C       -0.84743        -1.39559        -4.99596
   C       -0.91128        -2.48819        -5.85383
  Cl       -1.37091        -2.25871        -7.49417
   C       -0.60291        -3.76381        -5.37674
  Br       -0.69290        -5.25071        -6.54269
   C       -0.22792        -3.98021        -4.05545
   C       -0.16317        -2.89348        -3.20027
   C        0.18607        -2.78746        -1.78282
   C        0.53755        -3.84338        -0.97958
   C        0.86676        -3.76790         0.38943
   N        1.14552        -3.79911         1.50403
   C        0.61538        -5.18020        -1.42358
   N        0.69816        -6.28558        -1.72214
   C        0.08026        -1.39121        -1.41664
   C        0.33425        -0.88099        -0.16184
   C        0.27357         0.42204         0.32859
   S       -0.18573         1.84254        -0.61729
   C        0.04027         2.84883         0.76185
   C        0.44787         2.11251         1.89109
   C        0.57942         0.75202         1.66433
   C        1.04353        -0.20263         2.71449
   C        2.55420        -0.43142         2.61348
   S        0.68008         3.09729         3.32430
   C        0.22718         4.48750         2.40280
   C       -0.07478         4.20664         1.06334
   N       -0.41451         5.36199         0.40444
   C       -1.22606         5.27167        -0.79251
   C       -0.34154         6.39603         1.32047
   C        0.03103         5.86290         2.58777
   C        0.04224         6.66307         3.75240
   N        0.32370         6.30496         4.99490
   S        0.09415         7.58255         5.96224
   N       -0.37263         8.64324         4.83341
   C       -0.36299         8.03699         3.65645
   C       -0.63275         8.58318         2.38201
   C       -0.54140         7.79444         1.20236
   N       -0.70211         8.61910         0.10403
   C       -0.24944         8.44208        -1.25932
   C       -1.39612         8.55126        -2.26028
   C       -0.93220         9.88362         0.56773
   C       -0.90482         9.89966         1.97060
   S       -1.12479        11.46795         2.67921
   C       -1.25739        12.10353         1.07224
   C       -1.13340        11.17641         0.07772
   S       -1.31357        12.29762        -1.28839
   C       -0.20563        14.23573         0.38759
   C       -1.40771        13.38037         0.28926
   C       -2.73764        14.10039         0.42252
   C       -3.02479        15.03552        -0.74613
   C        1.11569        13.85192         0.32967
   C        1.85158        15.04147         0.49661
   C        3.17779        15.60922         0.57046
   C        4.34706        14.92156         0.44953
   C        5.63181        15.49926         0.52582
   N        6.69101        15.93439         0.58253
   C        4.32803        13.52501         0.22431
   N        4.30265        12.39437         0.03878
   C        2.96742        17.04898         0.78656
   C        3.87485        18.07504         0.93122
   C        3.39535        19.37080         1.12253
  Br        4.64608        20.77784         1.31947
   C        2.02983        19.63898         1.16818
  Cl        1.46524        21.24437         1.40356
   C        1.10181        18.60688         1.02230
   C        1.56882        17.32470         0.83373
   C        0.91443        16.05594         0.65002
   O       -0.32655        15.57798         0.58389
   C       -2.70575         5.44886        -0.46196
   H       -1.08286        -0.40270        -5.34487
   H        0.00146        -4.98225        -3.73104
   H        0.63686        -1.60369         0.58340
   H        0.81403         0.22792         3.69120
   H        0.52658        -1.15962         2.63253
   H        3.08838         0.50708         2.74081
   H        2.87247        -1.12333         3.38754
   H        2.81686        -0.85306         1.64610
   H       -0.91607         6.00008        -1.53780
   H       -1.05706         4.27648        -1.21015
   H        0.47651         9.23552        -1.47359
   H        0.27885         7.49186        -1.33517
   H       -1.82066         9.55182        -2.22827
   H       -1.02396         8.37082        -3.26481
   H       -2.18501         7.83680        -2.04228
   H       -3.52532        13.34625         0.48700
   H       -2.72546        14.65995         1.36146
   H       -3.00215        14.48161        -1.68282
   H       -4.01023        15.47910        -0.63046
   H       -2.29083        15.83483        -0.79785
   H        1.48416        12.85779         0.18099
   H        4.93947        17.90272         0.90065
   H        0.04607        18.82178         1.05851
   H       -3.02344         4.69674         0.25656
   H       -2.88971         6.43205        -0.03380
   H       -3.30166         5.33828        -1.36374
*
