# ORCA input file
# SCF done       -151.764520600396          0.000661456512
! wb97x-d3 def2-SVP def2/J RIJCOSX Grid4 TightSCF
%maxcore 5000
%tddft
    Mode sTDA
    Ethresh 5.0
    maxcore 5000
end

%pal
  nprocs 6
  end
* xyz 0 1
   C       -6.32562         0.03487        -0.77617
   O       -5.11814         0.09242        -0.87548
   C       -7.25925         1.14327        -1.07669
   C       -6.95379         2.40341        -1.54733
   C       -8.01250         3.27404        -1.76511
   C       -9.32646         2.89595        -1.52142
   C       -9.62109         1.62747        -1.04547
   C       -8.57878         0.73930        -0.81796
   C       -8.55746        -0.63678        -0.32807
   C       -9.65437        -1.31800         0.13098
   C      -10.96275        -0.78780         0.14677
   N      -12.05012        -0.42242         0.18763
   C       -9.66483        -2.61718         0.68342
   N       -9.77370        -3.65792         1.15720
   C       -7.17859        -1.10045        -0.36549
   C       -6.81533        -2.40268        -0.13994
   C       -5.55917        -3.03471        -0.11651
   C       -4.25269        -2.57480        -0.19783
   C       -3.30711        -3.58602        -0.11856
   C       -3.84404        -4.85656         0.02466
   S       -5.56836        -4.77747         0.07534
   C       -3.15121        -6.12002         0.09931
   C       -3.88956        -7.32006         0.13089
   C       -3.27531        -8.54843         0.15382
   C       -1.88450        -8.60285         0.14816
   C       -1.13285        -7.39824         0.14218
   C       -1.75519        -6.16334         0.11561
   N        0.20721        -7.69731         0.14949
   C        1.28349        -6.74185         0.10521
   C        1.64885        -6.36721        -1.32992
   C        0.34721        -9.06184         0.10919
   C       -0.93614        -9.66924         0.12577
   C       -1.04306       -11.05654         0.09700
   C        0.10213       -11.81399         0.03134
   C        1.37869       -11.21681        -0.00647
   C        1.49632        -9.82633         0.04305
   C        2.56723       -12.02623        -0.11990
   C        2.67009       -13.40085        -0.26475
   C        3.97223       -13.86469        -0.38373
   C        4.92431       -12.85698        -0.33287
   S        4.13830       -11.30482        -0.11911
   C        6.32887       -12.83799        -0.39844
   C        7.24557       -13.82475        -0.65149
   C        8.68259       -13.59751        -0.66014
   C        9.35372       -12.48758        -0.21702
   C       10.75847       -12.35059        -0.24746
   N       11.89199       -12.16961        -0.24538
   C        8.77803       -11.33435         0.35859
   N        8.40560       -10.36651         0.85274
   C        9.32137       -14.80493        -1.17766
   C       10.64770       -15.10688        -1.45432
   C       10.95784       -16.36530        -1.94680
   C        9.96114       -17.30928        -2.15784
   C        8.62787       -17.03018        -1.89113
   C        8.33087       -15.77401        -1.40487
   C        7.00100       -15.22528        -1.05619
   O        5.95447       -15.83493        -1.11775
  Br       -7.65846         5.02452        -2.41279
  Br       10.43581       -19.02003        -2.83377
   H       -5.93048         2.68931        -1.73517
   H      -10.12566         3.59730        -1.70591
   H      -10.64843         1.35611        -0.86835
   H       -7.63249        -3.09277         0.03528
   H       -4.01300        -1.53463        -0.31682
   H       -2.25105        -3.39389        -0.17286
   H       -4.96778        -7.26112         0.12558
   H       -3.85809        -9.45617         0.16819
   H       -1.17836        -5.25333         0.10107
   H        0.97763        -5.85183         0.66148
   H        2.14953        -7.17468         0.61217
   H        0.79135        -5.93227        -1.83822
   H        2.46072        -5.64535        -1.33179
   H        1.96460        -7.24954        -1.88144
   H       -2.01310       -11.52857         0.11867
   H        0.02136       -12.88815         0.00482
   H        2.47515        -9.37163         0.01382
   H        1.81828       -14.05554        -0.29009
   H        4.23364       -14.89899        -0.50897
   H        6.74010       -11.84821        -0.23719
   H       11.43773       -14.39049        -1.30201
   H       11.98388       -16.61484        -2.16952
   H        7.84775       -17.75746        -2.05466
*
