# ORCA input file
# SCF done       -114.148068069298          0.000502485130
! wb97x-d3 def2-SVP def2/J RIJCOSX Grid4 TightSCF
%maxcore 5000
%tddft
    Mode sTDA
    Ethresh 5.0
    maxcore 5000
end

%pal
  nprocs 6
  end
* xyz 0 1
   C       -3.15788         1.24422        -0.03967
   C       -1.82915         1.59546        -0.09425
   C       -0.86641         0.59199        -0.08140
   C       -1.26474        -0.76898        -0.01662
   C       -2.60270        -1.11648         0.05843
   C       -3.55714        -0.10082         0.04462
   C        0.56181         0.59242        -0.12297
   C        0.96244        -0.76724        -0.08969
   N       -0.15050        -1.57115        -0.04903
   C        1.52641         1.59392        -0.16648
   C        2.85461         1.23711        -0.18452
   C        3.25605        -0.11174        -0.15483
   C        2.29945        -1.12287        -0.10399
   C       -0.12639        -3.00485         0.07466
   C        0.07992        -3.44175         1.52419
   C        4.67458        -0.45010        -0.17030
   C        5.17758        -1.59997         0.49182
   C        6.58399        -1.90085         0.47819
   C        7.51232        -1.07163        -0.20953
   C        6.97555         0.03565        -0.85298
   C        5.61319         0.32977        -0.82754
   N        4.49240        -2.50023         1.20055
   S        5.50771        -3.60102         1.77787
   N        6.86841        -3.00380         1.16654
   C        8.89277        -1.44628        -0.18248
   C        9.95700        -0.81548        -0.74762
   C       -4.97451        -0.43628         0.13478
   C       -5.96632         0.31565        -0.54391
   C       -7.35687        -0.03562        -0.43917
   C       -7.78445        -1.13238         0.35865
   C       -6.78068        -1.83943         1.00743
   C       -5.43270        -1.50252         0.89202
   N       -5.78582         1.36469        -1.34860
   S       -7.20741         1.85545        -1.90225
   N       -8.13323         0.77011        -1.16012
   C       -9.18767        -1.40379         0.42486
   C       11.25354        -1.36456        -0.60071
   C        9.93960         0.37774        -1.50052
   C       -9.83424        -2.38148         1.11470
   C      -11.24519        -2.47203         1.04315
   C       -9.25347        -3.37084         1.93598
   N      -12.38750        -2.54433         0.98322
   N       -8.84124        -4.20081         2.61345
   N        9.99204         1.34517        -2.11607
   N       12.30231        -1.81186        -0.48303
   H       -3.91643         2.00937        -0.04592
   H       -1.53546         2.63250        -0.14591
   H       -2.91107        -2.15023         0.09265
   H        1.23501         2.63299        -0.17780
   H        3.60855         2.00898        -0.18362
   H        2.60925        -2.15423        -0.08258
   H       -1.06941        -3.40072        -0.30961
   H        0.68309        -3.39228        -0.55068
   H       -0.72244        -3.05978         2.15128
   H        0.08957        -4.52623         1.59015
   H        1.02557        -3.05893         1.90051
   H        7.62811         0.69739        -1.39981
   H        5.27692         1.19906        -1.37138
   H        9.09770        -2.35698         0.36800
   H       -7.04364        -2.67841         1.63179
   H       -4.71759        -2.08977         1.44796
   H       -9.80055        -0.72748        -0.15942
*
