# ORCA input file
# SCF done       -235.116108457923          0.000564212794
! wb97x-d3 def2-SVP def2/J RIJCOSX Grid4 TightSCF
%maxcore 5000
%tddft
    Mode sTDA
    Ethresh 5.0
    maxcore 5000
end

%pal
  nprocs 6
  end
* xyz 0 1
   C        0.39035        -0.51114        -2.33387
   O        0.12178        -1.69404        -2.22050
   C       -0.58741         0.59981        -2.36096
   C       -1.96136         0.53699        -2.25046
   C       -2.66525         1.72964        -2.30517
   C       -1.99619         2.94171        -2.46664
   C       -0.61432         3.00344        -2.57792
   C        0.09661         1.81546        -2.52427
   C        1.53309         1.53787        -2.60625
   C        2.50695         2.49295        -2.76646
   C        3.89482         2.25584        -2.83720
   N        5.03823         2.15498        -2.90055
   C        2.24811         3.87429        -2.88359
   N        2.10992         5.00948        -2.98594
   C        1.70514         0.10828        -2.48400
   F       -2.70062         4.07911        -2.51615
   C        2.91669        -0.55114        -2.51722
   F       -4.00124         1.71623        -2.20188
   C        5.20579       -15.03941        -0.66676
   O        5.33448       -13.82744        -0.71414
   C        6.27996       -16.00532        -0.34556
   C        7.60292       -15.75031        -0.04747
   C        8.42129       -16.83612         0.22117
   C        7.91303       -18.13342         0.18842
   C        6.58201       -18.38835        -0.11113
   C        5.75759       -17.30843        -0.38167
   C        4.33549       -17.23232        -0.72662
   C        3.49173       -18.31258        -0.81485
   C        2.11541       -18.26262        -1.11533
   N        0.99026       -18.31109        -1.34664
   C        3.89267       -19.64748        -0.60071
   N        4.15219       -20.75472        -0.44230
   C        4.00983       -15.83778        -0.91935
   F        8.72601       -19.16400         0.45098
   C        2.77965       -15.36296        -1.33005
   F        9.71328       -16.63443         0.51465
   C        3.06396        -5.72965        -1.82657
   C        3.36043        -4.36330        -2.03448
   C        4.60309        -3.77405        -2.24890
   C        4.54226        -2.40740        -2.44397
   C        3.22547        -1.90271        -2.38504
   S        2.08053        -3.19932        -2.10429
   C        5.76725        -1.57307        -2.63796
   C        6.24033        -0.99703        -1.30066
   C        3.90026        -6.77866        -1.43120
   C        3.21032        -8.01304        -1.50536
   C        1.87362        -7.91293        -1.86110
   S        1.41638        -6.26847        -2.14407
   S        3.66246        -9.64727        -1.18621
   C        2.04321       -10.20681        -1.59350
   C        1.17177        -9.14465        -1.86957
   N        5.19635        -6.67890        -0.98082
   C        5.99497        -7.84318        -1.09216
   C        5.64399        -5.63295        -0.16141
   C        6.15996        -8.44720        -2.33453
   C        6.83182        -9.65013        -2.43386
   C        7.35187       -10.27373        -1.30614
   C        7.23492        -9.62812        -0.07970
   C        6.56680        -8.42596         0.03393
   C        4.77602        -4.91360         0.65693
   C        5.25735        -3.89115         1.44782
   C        6.60840        -3.55873         1.45736
   C        7.46913        -4.28889         0.64769
   C        6.99925        -5.31044        -0.15441
   N       -0.18281        -9.22144        -2.09529
   C       -0.76460        -8.23626        -2.92228
   C       -1.01489       -10.09650        -1.38466
   C       -0.68796       -10.52722        -0.10061
   C       -1.50648       -11.41948         0.56010
   C       -2.67254       -11.90107        -0.02609
   C       -3.00420       -11.44779        -1.29640
   C       -2.19049       -10.56020        -1.97295
   C       -0.19861        -7.95577        -4.16207
   C       -0.73835        -6.96687        -4.96096
   C       -1.85044        -6.24296        -4.54989
   C       -2.42035        -6.54650        -3.31791
   C       -1.88871        -7.52884        -2.50796
   C        1.88113       -11.60937        -1.64747
   S        3.21533       -12.60191        -1.15300
   C        2.32372       -14.06221        -1.52093
   C        1.04453       -13.74406        -2.02641
   C        0.82229       -12.38299        -2.11654
   C        0.03749       -14.75180        -2.47991
   C        0.34743       -15.24106        -3.89738
   C        7.96683       -11.63301        -1.39550
   C        7.10832        -2.44659         2.32711
   C       -3.53997       -12.87752         0.70539
   C       -2.40719        -5.13983        -5.39365
   H       -2.47389        -0.40321        -2.12417
   H       -0.14714         3.96646        -2.70103
   H        3.78467         0.07764        -2.65941
   H        7.99323       -14.74551        -0.02236
   H        6.24042       -19.41009        -0.12391
   H        2.03895       -16.11877        -1.55214
   H        5.52025        -4.33120        -2.29712
   H        6.55644        -2.20427        -3.04987
   H        5.58514        -0.75868        -3.34036
   H        6.46221        -1.80284        -0.60502
   H        7.13592        -0.40079        -1.45055
   H        5.47403        -0.36085        -0.86434
   H        5.73495        -7.98047        -3.21175
   H        6.93534       -10.12189        -3.39984
   H        7.64863       -10.08874         0.80505
   H        6.45647        -7.94668         0.99563
   H        3.72678        -5.16520         0.68365
   H        4.57236        -3.34295         2.07808
   H        8.52321        -4.05253         0.63775
   H        7.68071        -5.86633        -0.78177
   H        0.20624       -10.15813         0.37822
   H       -1.23828       -11.74734         1.55373
   H       -3.90780       -11.80118        -1.77151
   H       -2.45481       -10.22961        -2.96685
   H        0.66628        -8.51454        -4.48994
   H       -0.28686        -6.75450        -5.91897
   H       -3.28583        -5.99458        -2.98252
   H       -2.33096        -7.74617        -1.54700
   H       -0.08057       -11.97167        -2.52579
   H        0.01113       -15.60660        -1.80209
   H       -0.94839       -14.28336        -2.46934
   H        1.32568       -15.71422        -3.93611
   H       -0.39854       -15.96616        -4.21069
   H        0.34042       -14.40732        -4.59585
   H        7.18846       -12.37745        -1.21781
   H        8.38967       -11.81066        -2.38139
   H        8.74324       -11.76142        -0.64474
   H        6.60893        -1.51127         2.07657
   H        6.89939        -2.66273         3.37425
   H        8.18006        -2.31050         2.20831
   H       -4.38069       -13.18915         0.09128
   H       -2.96575       -13.75957         0.98536
   H       -3.92626       -12.42974         1.62039
   H       -2.01275        -4.18337        -5.04918
   H       -2.12823        -5.26594        -6.43683
   H       -3.49155        -5.10161        -5.31806
*
