# ORCA input file
# SCF done       -240.631267643280          0.000535191429
! wb97x-d3 def2-SVP def2/J RIJCOSX Grid4 TightSCF
%maxcore 5000
%tddft
    Mode sTDA
    Ethresh 5.0
    maxcore 5000
end

%pal
  nprocs 6
  end
* xyz 0 1
   C       -1.52229         0.41112         0.03891
   C       -2.56844         1.25457        -0.25518
   C       -3.80883         1.36624         0.51287
   C       -4.58032         2.45847        -0.11577
   C       -3.86282         2.95976        -1.21499
   C       -2.60978         2.21167        -1.34107
   O       -4.15465         0.70327         1.47431
   C       -1.67457         2.40334        -2.32498
   C       -0.47329         1.67844        -2.47299
   C       -1.79234         3.36500        -3.35119
   N        0.51990         1.13530        -2.66865
   N       -1.82683         4.12365        -4.21168
   C       -5.80682         2.96903         0.25892
   C       -6.32309         4.01380        -0.49095
   C       -5.61836         4.52011        -1.58303
   C       -4.38673         4.00414        -1.96005
   C       -0.55484        -4.86753        13.68168
   C       -1.23739        -5.07883        14.85625
   C       -2.64494        -5.48316        15.04542
   C       -2.89170        -5.39666        16.50215
   C       -1.71253        -5.02171        17.16289
   C       -0.65157        -4.85869        16.16799
   O       -3.46394        -5.83879        14.22293
   C        0.65419        -4.56968        16.46912
   C        1.72415        -4.44858        15.55615
   C        1.13518        -4.36640        17.78102
   N        2.66071        -4.33994        14.89987
   N        1.59590        -4.18708        18.81676
   C       -4.07411        -5.62927        17.17607
   C       -4.06982        -5.47282        18.55224
   C       -2.90408        -5.09514        19.21913
   C       -1.71591        -4.86723        18.54089
   C        2.24397        -2.66606         2.34083
   C        0.45843        -4.40404         2.63044
   C        3.18219        -1.94000         3.05814
   C        4.41328        -1.65181         2.49768
   C        4.72860        -2.06821         1.21133
   C        3.78167        -2.79525         0.50015
   C        2.55295        -3.09475         1.05575
   C       -0.45491        -4.73070         1.63799
   C       -0.85155        -6.04347         1.46246
   C       -0.35509        -7.05621         2.27286
   C        0.57519        -6.72484         3.24915
   C        0.98174        -5.41597         3.42446
   C        6.07863        -1.78586         0.61933
   C        7.04927        -2.92476         0.93805
   C       -0.78410        -8.47953         2.06296
   C        0.00768        -9.11757         0.92002
   C       -4.57387        -5.55787         9.95501
   C       -2.82507        -6.66688         8.54547
   C       -5.51840        -4.54730         9.86930
   C       -6.75305        -4.69950        10.47399
   C       -7.06478        -5.85128        11.18314
   C       -6.11095        -6.85841        11.26338
   C       -4.87929        -6.71851        10.65536
   C       -1.95788        -7.62369         9.05387
   C       -1.58697        -8.70787         8.28029
   C       -2.06331        -8.85940         6.98456
   C       -2.95064        -7.91167         6.49193
   C       -3.33228        -6.83069         7.26324
   C       -8.41960        -6.03081        11.80421
   C       -9.37313        -6.70534        10.81580
   C       -1.65986       -10.04546         6.15728
   C       -2.51443       -11.26419         6.51035
   C       -1.35910        -0.49412         1.09120
   S       -2.51324        -0.87079         2.35835
   C       -1.37964        -1.93507         3.09037
   C       -0.16748        -2.00870         2.38989
   C       -0.16335        -1.20523         1.27305
   C       -1.45546        -2.59428         4.33473
   C       -0.25113        -2.94347         4.95173
   O        0.94172        -2.81109         4.35420
   C        0.87720        -2.96245         2.91577
   S       -2.85383        -2.93234         5.31323
   C       -1.82358        -3.50023         6.58003
   C       -0.46417        -3.40567         6.25457
   C       -2.04124        -4.04921         7.84776
   C       -0.83473        -4.27238         8.51726
   S        0.56609        -3.90871         7.54915
   O       -3.23857        -4.31047         8.38917
   C       -3.20537        -5.41092         9.32898
   C       -2.14471        -5.10855        10.35962
   C       -0.91730        -4.63820         9.87695
   C       -2.16895        -5.26489        11.73158
   C       -0.96353        -4.92750        12.34209
   S        0.22454        -4.42224        11.13760
   F       -6.13871         5.53094        -2.28766
   F       -2.92856        -4.94612        20.54845
   F       -7.50775         4.54328        -0.16300
   F       -5.19398        -5.68308        19.24833
   H       -0.65901         0.45994        -0.61344
   H       -6.34672         2.57484         1.10500
   H       -3.88396         4.43299        -2.81107
   H        0.47487        -4.54915        13.79090
   H       -4.97121        -5.91902        16.65261
   H       -0.84604        -4.57661        19.10601
   H        2.94726        -1.60692         4.05687
   H        5.13745        -1.08778         3.06777
   H        4.00804        -3.12911        -0.50210
   H        1.83013        -3.66528         0.49096
   H       -0.86569        -3.96111         1.00071
   H       -1.56971        -6.28124         0.69096
   H        0.98176        -7.49778         3.88528
   H        1.70216        -5.16887         4.19059
   H        5.99245        -1.67927        -0.46353
   H        6.47330        -0.85264         1.02494
   H        6.67877        -3.86280         0.53113
   H        8.02722        -2.72154         0.50851
   H        7.15866        -3.03876         2.01408
   H       -0.61964        -9.05242         2.97769
   H       -1.84932        -8.51192         1.82304
   H        1.07171        -9.10680         1.14540
   H       -0.30586       -10.14790         0.76994
   H       -0.15149        -8.56807        -0.00487
   H       -5.28626        -3.64509         9.32550
   H       -7.48261        -3.90591        10.39829
   H       -6.33337        -7.76192        11.81192
   H       -4.15173        -7.51345        10.72409
   H       -1.56232        -7.52416        10.05437
   H       -0.90378        -9.43980         8.68655
   H       -3.34200        -8.01482         5.49011
   H       -4.01939        -6.09714         6.86724
   H       -8.33593        -6.64765        12.70083
   H       -8.82739        -5.06030        12.09267
   H       -8.98864        -7.68017        10.52443
   H      -10.35461        -6.83857        11.26453
   H       -9.47985        -6.09869         9.91941
   H       -1.78399        -9.81397         5.09754
   H       -0.60846       -10.28037         6.33766
   H       -3.56546       -11.05501         6.32456
   H       -2.21879       -12.12186         5.91079
   H       -2.39707       -11.51809         7.56124
   H        0.66732        -1.11203         0.59586
   H       -3.02107        -5.60928        12.28831
*
