123
 SCF done       -218.706323234413          0.000420886452
C           2.84168286270278    3.63450973115734  -11.50256998753437
O           1.89238555993808    2.93708345058270  -11.19129633324073
C           3.60509021879617    3.55142583105591  -12.76696972123751
C           3.41574092251035    2.69256301540699  -13.83039008898115
C           4.27335086863363    2.81201278334973  -14.91264942854802
C           5.28640883578112    3.76976900303256  -14.91351790056552
C           5.47541663177695    4.63316298679265  -13.84375094504953
C           4.62223809537601    4.52033460840810  -12.75795908079155
C           4.55441007208758    5.26216815555472  -11.49625558659642
C           5.39093865196603    6.29234266711461  -11.14599616344780
C           5.34239255977596    7.02296205363053   -9.94091564138222
N           5.37528860942236    7.66865184629573   -8.99075825184952
C           6.43594692529892    6.77525925643244  -11.96121794012718
N           7.30291405425963    7.21708747123393  -12.57048394999659
C           3.46175570056325    4.70824813315651  -10.72895817613061
C           3.07267529991123    5.11965386459751   -9.47209609382553
C         -13.56320260796005    1.49471909864285    6.80152197398704
O         -12.58940575026929    1.72333058057359    6.10594872352174
C         -13.85035606454591    2.10360193355309    8.11817433790629
C         -13.10132505794635    3.02754263918651    8.81789892275540
C         -13.58686917447358    3.44947359307596   10.04552066791128
C         -14.78993304177373    2.95000187117049   10.54241607222077
C         -15.54193859640712    2.02094474797325    9.83734459619241
C         -15.06342474519700    1.59357738062926    8.60925350794146
C         -15.60192862121079    0.64117097432054    7.63428961234507
C         -16.77886882175012   -0.04944799634490    7.78125583763043
C         -17.31776472148532   -0.96926847634233    6.85843814700787
N         -17.82701651378641   -1.73071745509781    6.16444564295833
C         -17.63062654201549    0.06881913571271    8.89945335736329
N         -18.36842992703280    0.11643454316342    9.77771552402973
C         -14.67319553256019    0.58409299461882    6.52764987097888
C         -14.80911202783651   -0.20144648557643    5.40232202732230
C         -13.98981476503199   -0.33408988601544    4.28222149643214
S         -12.48008031954863    0.51830004285624    3.97410616575717
C         -12.33596327540565   -0.29665227330425    2.48038078093123
C         -13.38360727289031   -1.20313094408886    2.21796959343157
C         -14.31485215036254   -1.20712754652070    3.22492256964181
C         -11.45234386965025   -0.31361656705831    1.38712042736008
C         -11.90975845220713   -1.21435194721561    0.42058199199774
C         -13.19895449077798   -1.86867055331936    0.86968278315911
S          -9.98052875652296    0.44808544956633    0.94180811464952
C          -9.95699423303637   -0.46167319431840   -0.55256482940812
C         -11.05436707610008   -1.30750722514242   -0.66785972988071
C          -2.77997734224984    2.33637593669388   -5.32861828379091
S          -2.15134134207213    1.94817323334470   -6.91583477059772
C          -0.93464090026469    3.15023504165202   -6.73028850204939
C          -1.02492049594010    3.82204641607932   -5.50715375386810
C          -2.05734756165398    3.34949997124316   -4.71287573898914
C           0.15410966760947    3.65184645698866   -7.46711567807871
C           0.77503740798539    4.66298084392896   -6.70375499127490
C           0.06932053036309    4.85666200790524   -5.37922678000490
S           0.88510809058961    3.39187332977964   -8.99056420592830
C           2.04566472563908    4.67034728079261   -8.64377480154522
C           1.82248080022086    5.23902349104297   -7.37471617803851
C           0.96144420220250    4.48157237581946   -4.17906216511560
C           2.15372808962518    5.40055178906749   -3.95161472169518
C          -0.48741729752912    6.29314581473655   -5.32245917578436
C          -1.30410786638435    6.61986172520910   -4.07954857609183
C         -14.39250307919681   -1.48992128560477   -0.02944714649831
C         -14.31866441211611   -2.01666903657017   -1.45610737189578
C         -12.96326337371699   -3.38697184870339    0.99318362140449
C         -14.15559638323519   -4.18364799369424    1.50477574407101
F         -15.23582787379437    3.37453827549372   11.73096133554267
F         -12.89372219929658    4.34500216244236   10.76073804340620
F           4.12726192693343    1.99913975512226  -15.96729728869040
F           6.10107601246826    3.86284823719214  -15.97152750729569
C          -8.89899554842682   -0.27720487683545   -1.47634849159468
S          -7.63244543292259    0.88323829763786   -1.12757667598018
C          -6.87679404523417    0.51045407110661   -2.61868328152526
C          -7.55425119235351   -0.47309465680742   -3.34300252248345
C          -8.70477196592548   -0.90813598588640   -2.69834631363671
C          -5.76719216100852    0.95530610220025   -3.36592532260327
C          -5.72290176438806    0.26276746149981   -4.57575020990879
C          -6.84376898542155   -0.75116631963294   -4.64867997058835
S          -4.51060663644221    2.11055301087208   -3.21353239364540
C          -3.90743841000767    1.66496784153578   -4.80179009917204
C          -4.66712004566278    0.66169780462901   -5.38422133648597
C          -7.75482930014961   -0.51745882426230   -5.86340008262072
C          -8.28711711068311    0.90916438042292   -5.93299078375423
C          -6.20827589338263   -2.15921685741518   -4.67070343355131
C          -7.19496269197429   -3.31296505963232   -4.55447373028112
H           2.63086144021957    1.95324219108211  -13.82507721480669
H           6.27363444897409    5.35506050974763  -13.89504868866916
H           3.64677098585952    5.92640501464823   -9.03300991447454
H         -12.17152816766461    3.41038482126067    8.42855588718083
H         -16.46442346402164    1.66767729339597   10.26753564368179
H         -15.69177165571726   -0.82767042637217    5.35815400686204
H         -15.21842281653959   -1.79016117661069    3.24705092172182
H         -11.19340135790898   -1.95526788621686   -1.51329781139212
H          -2.30027392072274    3.69481347261364   -3.72414863930130
H           2.43254212330642    6.04860901892920   -7.01542072180315
H           0.33770515339300    4.46458555619084   -3.28403396988457
H           1.32376485245087    3.46338569737140   -4.34363014463531
H           1.83729495663932    6.42080668931958   -3.75400820982306
H           2.71916867072554    5.05029276988750   -3.09100397301999
H           2.81549334781269    5.39816246690828   -4.81277179848006
H           0.35254804306823    6.98458549383741   -5.39956153395034
H          -1.11275347359832    6.43979953114022   -6.20702812031842
H          -0.71620322012243    6.49739384333234   -3.17421056146331
H          -1.63601189332740    7.65449059981918   -4.12873615825640
H          -2.18471222289129    5.98704585093088   -4.01546296178718
H         -15.30380569493026   -1.85354920768023    0.44685116319108
H         -14.45162146882895   -0.39878339628565   -0.05659648446221
H         -14.27535632813283   -3.10209635648866   -1.47703429418229
H         -15.20592961878881   -1.70391650945025   -2.00198358802929
H         -13.44895390197091   -1.61877765731557   -1.97133524355490
H         -12.66414475013883   -3.76587686034306    0.01463209760862
H         -12.11941054230465   -3.53497826560562    1.67207895690207
H         -15.01164916367691   -4.08771061319627    0.84284035675412
H         -13.88852059809561   -5.23659854277931    1.56032002977402
H         -14.44225796919302   -3.85623864696707    2.49974589405465
H          -9.39275811974648   -1.63632076435934   -3.08627556600037
H          -4.44130241121482    0.26823921725110   -6.35922771779271
H          -7.18844643629185   -0.73956941529893   -6.76991344260620
H          -8.59676500328396   -1.20836547544076   -5.80932164535101
H          -7.47178365208134    1.62265363916725   -6.02611189085353
H          -8.94028179325428    1.02109744751026   -6.79492924605622
H          -8.85525800009501    1.15187281045302   -5.03771544251074
H          -5.64495284084030   -2.25544208819758   -5.60118324850671
H          -5.49617225288053   -2.21995834127349   -3.84387331559636
H          -7.91171555955900   -3.30642130785003   -5.37102976303439
H          -6.65288205299773   -4.25513401851511   -4.58998649832654
H          -7.73233727518330   -3.26773663853984   -3.61128650439462
