154
 SCF done       -248.886916428090          0.000879712467
C          -1.80836806839650   -2.30701877465877    2.59475959112325
C          -1.48515764105545   -1.77796456912859    1.35700277953374
S          -0.62954608148501   -2.00525014925496    3.82544265365988
C           0.33702534166421   -1.14004596069161    2.66198665552847
C          -0.25917623747728   -1.11964184458013    1.38255808983557
C           1.54851074180571   -0.47208391018513    2.74034979690482
C           1.91419838412785    0.08297712347466    1.52233923778244
S           0.71363444365690   -0.25738170222794    0.26339115743799
C           3.03118172964205    0.82724068733733    1.10647876970417
C           4.09668829543552    1.34271522744303    1.79733345583769
C           5.16762628968163    2.09415599810111    1.16340662165803
C           5.98547995500000    2.68387261086577    2.22146040232218
C           5.50356323377527    2.23604778816222    3.46213977236670
C           4.33468244805384    1.35729374664334    3.25806775866992
C           7.07323657045368    3.54230014671214    2.17961399770913
C           7.65929564105971    3.92815717869970    3.37815995752441
C           7.18276925206429    3.47267972725597    4.59906126470921
C           6.09145245450346    2.61734308534696    4.65221032102130
O           3.71910581938335    0.79068696107410    4.13870321594584
C           5.43015341541312    2.19571062232537   -0.17809790248460
C           6.49811936890155    2.94190073991816   -0.72064357977575
C           4.72379150897733    1.55741897798716   -1.22004926923580
N           4.23324785458766    1.06856891351538   -2.13681851004320
N           7.33936327178949    3.53152327508932   -1.23347259495173
C         -10.35894844424297   -6.67101233247813    2.40306584114059
C         -10.98831367901295   -6.50244472501569    1.18244883584421
S         -11.23526972580437   -7.66016624946578    3.52298982667238
C         -12.48293688564071   -7.86980838603428    2.32138777135643
C         -12.20184775189223   -7.18426234336425    1.11925181168985
C         -13.67456434938409   -8.56399787816272    2.29103520743104
C         -14.33624908868911   -8.42897372248968    1.06671928570280
S         -13.44107139718889   -7.40538409631758   -0.05304323781532
C         -15.55648064317140   -9.07169982902568    0.81812185512732
C         -16.35044973324314   -9.07924250619535   -0.30103541330092
C         -17.59753601528033   -9.80335321541459   -0.44814608080506
C         -18.10931961662445   -9.52586246089177   -1.79113782586605
C         -17.21298056049088   -8.66567836585658   -2.44873406901951
C         -16.08492113686303   -8.35621635883183   -1.55116040596146
O         -15.13387215922837   -7.64093699038530   -1.81162508785102
C         -18.21018522996954  -10.61089145769476    0.47511054069038
C         -19.42857608047721  -11.28740245795716    0.25463824848158
N         -20.41304094511798  -11.86984221158589    0.15520437826030
C         -17.73521835404038  -10.89798490684401    1.77201316881977
N         -17.42464275141950  -11.18710281936130    2.83981539343515
C         -19.25158921268561   -9.95355154749408   -2.44903236023261
C         -19.47387298263482   -9.51260034843247   -3.74763640202515
C         -18.58407368501470   -8.66275899785132   -4.38795746685735
C         -17.43662826062529   -8.22840523371636   -3.73909183135347
C         -10.14926199464864   -5.65468349621193    0.26518000727840
C          -8.92823033141056   -5.41109241742859    1.13782226658180
C          -9.10141479150607   -5.99044836430775    2.42376391965743
C          -9.89293193693936   -6.43828076609041   -1.00699218450432
C         -10.77377854962580   -4.30149546715376   -0.03130826200625
C         -10.89804376577925   -6.50746285616195   -1.96511677905337
C         -10.72131099830689   -7.25372641256760   -3.11297583991550
C          -9.53946543255014   -7.94977580847860   -3.33560607804934
C          -8.54252420632718   -7.88205980426412   -2.37258582158260
C          -8.71698141412319   -7.14265551187019   -1.21571335710744
C         -11.75506887615430   -3.76307741021009    0.78835044306221
C         -12.27843163826227   -2.51021326135055    0.52704716325492
C         -11.83119164357787   -1.75999613703231   -0.55147499121431
C         -10.83980722081814   -2.29802590907783   -1.36176366509610
C         -10.31718067405244   -3.55139358865656   -1.10762481530295
C          -9.33072669630577   -8.71362889190875   -4.61161684450823
C         -12.36957011749326   -0.38127312744148   -0.80469236871052
C          -7.78908454292891   -4.71346596671044    0.82876442665146
C          -6.81914248354016   -4.58918417687151    1.82379896062193
C          -7.02136864716405   -5.13507396964120    3.12087144957330
C          -8.16277325602128   -5.85822955869993    3.43353862573898
C          -5.53612436168663   -3.96436804414821    1.84446733978603
C          -5.02897000515116   -4.13033049528364    3.16261798329768
N          -5.94504048397513   -4.82333152410207    3.91426884372891
C          -5.76661428592125   -5.23644960718298    5.28127758020533
C          -5.08086446578367   -6.59851856466748    5.37464714849470
C          -4.78895205752810   -3.31814916184395    0.85924559422274
C          -3.55413359123153   -2.83953224263306    1.21333098482715
C          -3.07746619790280   -2.96531698853790    2.54616712740441
C          -3.79449115450323   -3.61855937716920    3.53455083031475
C          -2.53327012403991   -2.13290814054092    0.33679256739206
C          -1.85082100522479   -3.05905486524132   -0.65960814579073
C          -1.95744127936173   -4.43920444299638   -0.57653478215254
C          -1.25875716476734   -5.24754712881957   -1.45579640177183
C          -0.42828088923288   -4.70202418222407   -2.42458593258044
C          -0.32376907975398   -3.31848349208046   -2.50111385165174
C          -1.02373188767650   -2.50651777520631   -1.63076374397204
C          -3.16893841415946   -0.94522311540638   -0.35254784394042
C          -3.13713179321315    0.32060562864420    0.21428947821909
C          -3.74465963675168    1.38834764039188   -0.42041242871125
C          -4.40955951304102    1.21757971298317   -1.62687357472917
C          -4.45223176065404   -0.05471174854838   -2.18224396085523
C          -3.84143931379631   -1.12340338576507   -1.55517992601079
C          -8.76756153976358   -7.79385850088887   -5.69711912458317
C         -11.55468442182067    0.66071246108000   -0.03565431346196
C           0.30432463726450   -5.58151268007061   -3.39627238143194
C          -0.53375781336539   -5.79944051487022   -4.65768087165557
C          -5.01695649702847    2.38939722188074   -2.34244909605711
C          -3.98004529149924    3.04859531295591   -3.25433166712380
H           2.14681330206185   -0.37675216876151    3.62742379037059
H           3.01374437196758    1.04046951210490    0.04362636681411
H           7.46380374655674    3.91570541789942    1.24736436515103
H           8.50552986644995    4.59842587187952    3.35458354335135
H           7.66375744443049    3.78889360692732    5.51249569174534
H           5.70044575861678    2.25216042527037    5.58955805590999
H         -14.06746364618914   -9.15203005834844    3.10098222583984
H         -15.90366587955926   -9.65420392946827    1.66304792474087
H         -19.96197048553137  -10.61324665124069   -1.97873284567960
H         -20.36166483101623   -9.84155825796818   -4.26664859246535
H         -18.78697219449551   -8.33808565650974   -5.39743382843353
H         -16.72985392741236   -7.56702490298782   -4.21630802522420
H         -11.82273710998945   -5.97076431098179   -1.81226120723251
H         -11.51615521037585   -7.29980962962400   -3.84299301107372
H          -7.61710265444076   -8.41995328507219   -2.52405817796272
H          -7.93091497085942   -7.11397307228322   -0.47504252362515
H         -12.11972462132411   -4.32335480479941    1.63689098907930
H         -13.04892111606727   -2.11124331989660    1.17152068321252
H         -10.47507278513661   -1.72995503200299   -2.20591210925404
H          -9.55734171149092   -3.95759392000931   -1.75937242505579
H          -8.63588001339673   -9.53867463094885   -4.44224557484207
H         -10.28085845062000   -9.13049365665898   -4.95156744375765
H         -12.32507095106590   -0.15648777927403   -1.87220334720260
H         -13.41287571857533   -0.32736830168482   -0.48729214721049
H          -7.63852733473049   -4.27458393280155   -0.14487496134279
H          -8.32932510563988   -6.30200376541995    4.40266200497730
H          -5.16936667023453   -4.47927318154051    5.79580497530344
H          -6.74828095771752   -5.27608278396548    5.76056134638468
H          -4.10077954783583   -6.56008948393453    4.90491794823010
H          -4.95906870472019   -6.88563130542482    6.41537640401192
H          -5.67608463468388   -7.35577555639069    4.86973563360483
H          -5.17274719502625   -3.21083639374886   -0.14296690197772
H          -3.39557767682223   -3.71495758573671    4.53226178771029
H          -2.58785931826809   -4.88919123389477    0.17643130774211
H          -1.35536965730967   -6.32145104261574   -1.37913640487257
H           0.31979571450220   -2.87116198354386   -3.24461576280836
H          -0.93014189573294   -1.43261438212260   -1.70507749714205
H          -2.63264059016305    0.47799659455588    1.15676375502620
H          -3.70216474333557    2.36959741445034    0.03062183518019
H          -4.96821178009126   -0.21039182759114   -3.11920689341213
H          -3.87269676725967   -2.10293246496516   -2.01042544464395
H          -7.81323360792921   -7.37745111944830   -5.38199726153353
H          -8.61795956695984   -8.34369314328427   -6.62347945412184
H          -9.45313778732376   -6.97116725962092   -5.88782016213938
H         -10.51190606679420    0.62849914082006   -0.34373260199726
H         -11.94195284378024    1.65991454489633   -0.22122777063203
H         -11.60035453871039    0.46304272951356    1.03302093062038
H           1.25334586982545   -5.11716556109122   -3.67119472294178
H           0.51709237566654   -6.54760413344346   -2.93395332466122
H          -0.74262165577397   -4.84778026185371   -5.14117507112761
H          -0.00399008434434   -6.43771174938707   -5.36097744534865
H          -1.48138311399608   -6.27076362808581   -4.40572055243191
H          -5.86597404995181    2.05777616257978   -2.94360137316363
H          -5.37660004805397    3.12218525987792   -1.61721251736855
H          -3.61748357875029    2.33544131508127   -3.99125894558073
H          -4.41540016030710    3.89753471087337   -3.77624059863062
H          -3.13085318442630    3.39709888563800   -2.67092395085303
