# ORCA input file
# SCF done       -150.645369218359          0.000996075538
! wb97x-d3 def2-SVP def2/J RIJCOSX Grid4 TightSCF
%maxcore 5000
%tddft
    Mode sTDA
    Ethresh 5.0
    maxcore 5000
end

%pal
  nprocs 6
  end
* xyz 0 1
   C       -5.54262        -3.84968        -0.86128
   O       -6.68965        -3.59357        -0.55742
   C       -5.03974        -5.17882        -1.25937
   C       -5.75016        -6.35462        -1.40352
   C       -5.06187        -7.49099        -1.80295
   C       -3.69760        -7.43469        -2.05052
   C       -2.98023        -6.25495        -1.90306
   C       -3.65768        -5.11408        -1.49991
   C       -3.20261        -3.74811        -1.24967
   C       -1.89372        -3.34418        -1.27207
   C       -1.40579        -2.05698        -0.95863
   N       -0.90972        -1.05024        -0.71321
   C       -0.80952        -4.19082        -1.59029
   N        0.12205        -4.81447        -1.83733
   C       -4.37188        -2.94325        -0.92554
   C       -4.33678        -1.58073        -0.80434
   C       -5.34086        -0.63682        -0.51143
   C       -6.67530        -0.73686        -0.15069
   C       -7.29020         0.49398         0.03479
   C       -6.45550         1.58016        -0.16916
   S       -4.86636         1.04851        -0.59177
   C       -6.77543         2.98492        -0.09264
   C       -5.75342         3.94282        -0.13834
   C       -6.02753         5.29399        -0.10579
   C       -7.35106         5.70480        -0.03178
   C       -8.38653         4.75550         0.02519
   C       -8.10989         3.41116        -0.00018
   C       -9.73294         5.43793         0.08826
   C      -10.62000         5.04474        -1.10753
   C       -9.96535         5.33792        -2.45203
   C      -10.46523         5.11173         1.40408
   C       -9.65072         5.46944         2.64134
   C       -9.33678         6.89465         0.02769
   C       -7.93828         7.02687        -0.02769
   C       -7.35647         8.28540        -0.08805
   C       -8.17569         9.39446        -0.11195
   C       -9.57223         9.27841        -0.07617
   C      -10.14915         8.00074         0.00622
   C      -10.39955        10.45785        -0.14793
   C      -11.78224        10.54082        -0.14054
   C      -12.27493        11.83255        -0.26450
   C      -11.28157        12.79287        -0.37226
   S       -9.70408        12.03404        -0.29784
   C      -11.29957        14.19627        -0.49538
   C      -12.32797        15.07536        -0.70060
   C      -12.14663        16.51769        -0.77195
   C      -11.04283        17.23347        -0.39015
   C      -10.94742        18.63986        -0.46579
   N      -10.79394        19.77671        -0.50720
   C       -9.85887        16.70523         0.16863
   N       -8.87198        16.37199         0.65316
   C      -13.39542        17.10067        -1.25702
   C      -13.74514        18.40434        -1.57456
   C      -15.03871        18.65526        -2.01273
   C      -15.97434        17.63770        -2.13495
   C      -15.63362        16.32932        -1.82368
   C      -14.34683        16.07624        -1.39009
   C      -13.74705        14.78149        -1.01223
   O      -14.32838        13.71630        -0.98978
   H       -6.81134        -6.37206        -1.20776
   H       -5.58927        -8.42515        -1.92428
   H       -3.17753        -8.32696        -2.36539
   H       -1.92221        -6.24313        -2.10614
   H       -3.37389        -1.11795        -0.98769
   H       -7.17152        -1.68239        -0.03437
   H       -8.32074         0.58976         0.32519
   H       -4.72880         3.60591        -0.20190
   H       -5.22575         6.01525        -0.14496
   H       -8.90912         2.68737         0.02707
   H      -10.84641         3.97877        -1.03946
   H      -11.56349         5.58979        -1.03720
   H       -9.03332         4.78659        -2.55485
   H      -10.62912         5.04527        -3.26209
   H       -9.74840         6.39918        -2.55143
   H      -11.41024         5.65855         1.42204
   H      -10.69707         4.04476         1.41881
   H       -9.42595         6.53354         2.66041
   H      -10.20939         5.22011         3.54036
   H       -8.71181         4.92040         2.65670
   H       -6.28372         8.39783        -0.12292
   H       -7.73816        10.38085        -0.16670
   H      -11.22124         7.89016         0.04209
   H      -12.42472         9.68418        -0.04793
   H      -13.32018        12.07850        -0.28290
   H      -10.30941        14.63404        -0.43702
   H      -13.03981        19.21494        -1.49433
   H      -15.31887        19.66736        -2.26368
   H      -16.97250        17.86732        -2.47625
   H      -16.34252        15.52051        -1.91328
*
