# ORCA input file
# SCF done       -175.814611683389          0.000569084702
! wb97x-d3 def2-SVP def2/J RIJCOSX Grid4 TightSCF
%maxcore 5000
%tddft
    Mode sTDA
    Ethresh 5.0
    maxcore 5000
end

%pal
  nprocs 6
  end
* xyz 0 1
   C        0.72869         0.08517         1.21104
   C        1.36907         0.64738         0.09707
   S        0.24341         0.96239        -1.18166
   C       -1.09081         0.32871        -0.24019
   C       -0.63420        -0.08463         1.00448
   C       -2.35126         0.33086        -0.85551
   C       -3.58196        -0.11442        -0.43515
   C       -4.78236        -0.02566        -1.24999
   C       -4.91092         0.50645        -2.50697
   C       -6.12543         0.54828        -3.22629
   N       -7.07358         0.61609        -3.86967
   C       -3.89192         1.09113        -3.29004
   N       -3.14238         1.58387        -4.00789
   C       -5.88336        -0.61698        -0.48816
   C       -7.22421        -0.79557        -0.79322
   C       -8.03349        -1.40266         0.15550
   F       -9.32980        -1.58450        -0.12154
   C       -7.53156        -1.82706         1.38590
   F       -8.34988        -2.40847         2.27204
   C       -6.19347        -1.65250         1.69783
   C       -5.38933        -1.04868         0.75167
   C       -3.94191        -0.75554         0.84431
   O       -3.24197        -1.01441         1.80229
   C        9.91574         3.79221        -4.52241
   C        8.55614         3.85434        -4.19778
   S        7.69939         4.88686        -5.29596
   C        9.15438         5.22754        -6.20809
   C       10.22804         4.55441        -5.64264
   C        9.04006         6.11951        -7.28606
   C        9.94293         6.49659        -8.24969
   C        9.65917         7.50428        -9.25657
   C        8.64904         8.42997        -9.23962
   C        8.45297         9.39984       -10.24616
   N        8.23853        10.20892       -11.03131
   C        7.69774         8.59518        -8.20929
   N        6.90616         8.81867        -7.40786
   C       10.71314         7.43448       -10.26753
   C       10.88434         8.10853       -11.46672
   C       12.01543         7.82345       -12.21715
   F       12.19716         8.45816       -13.38069
   C       12.96347         6.89270       -11.79097
   F       14.04194         6.65120       -12.54670
   C       12.79784         6.21450       -10.59446
   C       11.66913         6.49561        -9.85034
   C       11.25917         5.90129        -8.55708
   O       11.89966         5.08304        -7.93078
   C        1.42660        -0.27523         2.48796
   C        0.48136        -0.67734         3.61443
   C        2.73695         0.96654        -0.11308
   S        3.17658         1.86160        -1.55381
   C        4.83775         1.79834        -1.11847
   C        5.04748         1.12250         0.08027
   C        3.86158         0.66126         0.63924
   C        5.97225         2.30035        -1.79753
   C        7.22247         2.07286        -1.22932
  Ge        6.98077         1.09660         0.47048
   S        6.07441         3.16245        -3.28136
   C        7.82100         3.21220        -3.16296
   C        8.25485         2.58488        -2.00607
   C       10.95211         2.95959        -3.83284
   C       10.74486         1.46972        -4.11065
   C        7.44870         2.22687         2.06149
   C        7.73170        -0.76767         0.45809
   C        6.96949         1.63490         3.37764
   C        6.86508        -1.75098         1.23106
   H       -1.30585        -0.49915         1.73152
   H       -2.32695         0.75922        -1.85021
   H       -7.66482        -0.48772        -1.72674
   H       -5.79800        -1.97834         2.64662
   H       11.21909         4.61916        -6.05250
   H        8.05498         6.56532        -7.36469
   H       10.18108         8.83344       -11.84215
   H       13.52663         5.49290       -10.26131
   H        2.11326        -1.10478         2.29065
   H        2.02403         0.58248         2.81132
   H       -0.07577        -1.57338         3.35500
   H        1.05518        -0.88224         4.51542
   H       -0.22304         0.12147         3.83120
   H        3.83103         0.10052         1.55368
   H        9.28648         2.51591        -1.71742
   H       11.93189         3.25752        -4.20876
   H       10.94043         3.14892        -2.75830
   H       10.81066         1.27935        -5.17897
   H       11.51049         0.88442        -3.60765
   H        9.76914         1.13980        -3.76216
   H        8.53022         2.36048         2.08086
   H        7.00088         3.20870         1.90665
   H        7.81923        -1.08739        -0.57987
   H        8.73662        -0.73809         0.87769
   H        7.44517         0.67483         3.56574
   H        7.21189         2.30089         4.20364
   H        5.89160         1.48817         3.36170
   H        5.86940        -1.80408         0.79585
   H        7.30484        -2.74627         1.20293
   H        6.76748        -1.45101         2.27193
*
