# ORCA input file
# SCF done       -160.174526755940          0.000544657073
! wb97x-d3 def2-SVP def2/J RIJCOSX Grid4 TightSCF
%maxcore 5000
%tddft
    Mode sTDA
    Ethresh 5.0
    maxcore 5000
end

%pal
  nprocs 6
  end
* xyz 0 1
   C       -3.08125        -2.53362        -0.89305
   C       -3.19080        -2.37790        -2.25149
   C       -2.12619        -2.09001        -3.23768
   C       -2.82660        -1.73587        -4.48790
   C       -4.21353        -1.86309        -4.30946
   C       -4.46679        -2.32371        -2.94563
   O       -0.91966        -2.11532        -3.09290
   C       -5.69464        -2.68660        -2.45621
   C       -5.95648        -3.22182        -1.17676
   C       -6.89455        -2.60818        -3.19480
   N       -6.26252        -3.68008        -0.16852
   N       -7.90921        -2.56602        -3.73035
   C       -2.28130        -1.32349        -5.68769
   C       -3.14549        -1.02498        -6.73148
   C       -4.51768        -1.13942        -6.56144
   C       -5.06853        -1.55858        -5.35728
   C        2.73082        -0.73034         9.88267
   C        3.62581        -0.25096        10.84554
   C        4.95921         0.06462        10.74974
   C        5.80062        -0.10815         9.56078
   C        7.14617         0.35936         9.94054
   C        7.12755         0.79443        11.27710
   C        5.77350         0.62796        11.80809
   O        5.47257        -0.55206         8.47360
   C        5.37598         0.97719        13.07315
   C        4.07361         0.84672        13.59808
   C        6.22948         1.53884        14.04619
   N        3.04389         0.78063        14.10375
   N        6.86166         1.99918        14.88686
   C        8.29473         0.40288         9.17584
   C        9.45315         0.89403         9.76187
   C        9.44473         1.32504        11.08017
   C        8.29031         1.28177        11.85211
   C        1.37115        -0.93427        10.16731
   C        0.65143        -1.33109         9.06395
   C        1.44670        -1.45065         7.91967
   S        3.09084        -1.07972         8.19819
   C       -0.78365        -1.63688         8.73830
   C       -0.68925        -1.89278         7.24816
   C        0.63136        -1.80049         6.79878
   C       -1.70350        -0.44343         9.05470
   C       -1.28100        -2.88641         9.49094
   C       -1.28962         0.83379         8.33381
   C       -0.42666        -4.12060         9.22844
   C       -1.72206        -2.16732         6.35809
   C       -1.43503        -2.32215         5.02206
   C       -0.11447        -2.24227         4.54198
   C        0.96415        -2.00191         5.44001
   C        0.21595        -2.38450         3.17419
   C        1.54241        -2.37161         2.72934
   C        2.57743        -2.14636         3.63326
   C        2.28687        -1.95378         4.96325
   C       -0.61649        -2.49621         2.01990
   C        0.16081        -2.55596         0.86224
   C        1.62395        -2.55083         1.22292
   C        2.20014        -3.93253         0.83926
   C        2.38560        -1.36318         0.60436
   C        2.53659        -1.40182        -0.91097
   C        3.66108        -4.16066         1.20253
   S       -2.29014        -2.50709         1.68466
   C       -1.95951        -2.56945        -0.04956
   C       -0.59059        -2.62198        -0.29688
   H       -4.01787        -2.58945        -0.34995
   H       -1.21067        -1.23900        -5.79418
   H       -2.74962        -0.69915        -7.68173
   H       -5.17666        -0.89693        -7.38155
   H       -6.13858        -1.63322        -5.25463
   H        3.15881        -0.09130        11.80997
   H        8.27662         0.06210         8.15199
   H       10.36706         0.94198         9.18918
   H       10.35432         1.70434        11.52113
   H        8.31653         1.62367        12.87363
   H        0.96905        -0.76872        11.15136
   H       -2.72462        -0.70489         8.77068
   H       -1.68920        -0.27302        10.13301
   H       -1.28245        -2.66621        10.56033
   H       -2.31040        -3.08758         9.18804
   H       -1.31296         0.69312         7.25538
   H       -1.96961         1.64245         8.59022
   H       -0.28283         1.12987         8.61941
   H        0.60132        -3.95333         9.54171
   H       -0.81965        -4.96904         9.78337
   H       -0.42627        -4.37220         8.17016
   H       -2.74051        -2.24382         6.70771
   H       -2.23161        -2.51609         4.31936
   H        3.60130        -2.09609         3.29787
   H        3.08310        -1.75870         5.66582
   H        1.59103        -4.69321         1.33538
   H        2.06855        -4.06042        -0.23617
   H        1.85435        -0.45006         0.88643
   H        3.37541        -1.31561         1.06085
   H        1.57051        -1.39785        -1.40591
   H        3.08434        -0.52031        -1.23758
   H        3.09099        -2.27917        -1.23218
   H        3.80188        -4.14702         2.27975
   H        3.97271        -5.13630         0.83543
   H        4.30492        -3.41051         0.75168
   H       -0.20425        -2.69721        -1.29518
*
