# ORCA input file
# SCF done       -174.977743743257          0.000234669787
! wb97x-d3 def2-SVP def2/J RIJCOSX Grid4 TightSCF
%maxcore 5000
%tddft
    Mode sTDA
    Ethresh 5.0
    maxcore 5000
end

%pal
  nprocs 6
  end
* xyz 0 1
   S       -5.95308         3.83699         0.18504
   C       -5.60915         5.50865        -0.25297
   S       -6.74331         6.56035        -0.76976
   N       -4.28894         5.77121        -0.10668
   C       -3.72908         7.08455        -0.36049
   C       -3.90257         7.99832         0.84615
   C       -3.48007         4.73851         0.34310
   O       -2.28702         4.85217         0.50824
   C       -4.27608         3.52915         0.57462
   C       -3.69858         2.39740         1.04443
   C       -4.27628         1.13625         1.36791
   C       -3.43587         0.13528         1.92925
   N       -2.13092         0.22882         2.17189
   S       -1.61665        -1.14870         2.81980
   N       -3.02164        -1.93307         2.82888
   C       -3.96125        -1.14214         2.31804
   C       -5.33624        -1.45899         2.14946
   C       -6.11853        -0.45985         1.57299
   C       -5.61236         0.77909         1.20212
   C       -5.84797        -2.72176         2.57186
   C       -7.14533        -3.20462         2.45536
   C       -7.29247        -4.46744         3.01402
   C       -6.10400        -4.95720         3.54141
   S       -4.79408        -3.86648         3.37152
   C       -6.28473        -6.27527         4.05833
   C       -7.63717        -6.62500         3.83804
   C       -8.39668        -5.47549         3.19472
   C       -9.45763        -4.98944         4.20768
   C      -10.17984        -3.70564         3.82126
   C       -9.03346        -5.88190         1.85692
   C       -8.02153        -6.47872         0.88568
   C       -8.11186        -7.85901         4.21824
   C       -7.21082        -8.73441         4.82074
   C       -5.85952        -8.37818         5.04907
   C       -5.38498        -7.14640         4.66777
   C       -5.10532        -9.50511         5.72672
   C       -3.93448       -10.00417         4.85993
   C       -4.37253       -10.45203         3.47083
   C       -4.57907        -9.07734         7.10959
   C       -5.67921        -8.56891         8.03330
   C       -6.18383       -10.54391         5.84560
   C       -7.37355       -10.06559         5.31532
   S       -8.64105       -11.21504         5.41458
   C       -7.55502       -12.36465         6.18392
   C       -6.28328       -11.83838         6.33811
   C       -8.01492       -13.66309         6.55553
   C       -7.16031       -14.60500         7.19617
   N       -5.88585       -14.44563         7.54970
   S       -5.35891       -15.79831         8.24406
   N       -6.71290       -16.65377         8.13225
   C       -7.64700       -15.91297         7.54264
   C       -8.98239       -16.31357         7.25851
   C       -9.78289       -15.35634         6.64175
   C       -9.31704       -14.09171         6.30950
   C       -9.37598       -17.63547         7.61504
   C      -10.55466       -18.27759         7.43320
   S      -12.03005       -17.69890         6.69401
   C      -12.83662       -19.24490         6.94792
   S      -14.37089       -19.55194         6.48855
   N      -12.00028       -20.11759         7.55836
   C      -12.40895       -21.46354         7.91077
   C      -13.15760       -21.48371         9.23721
   C      -10.72637       -19.66713         7.86915
   O       -9.89279       -20.35402         8.41400
   H       -2.66853         6.93114        -0.57374
   H       -4.23223         7.50496        -1.23445
   H       -3.41051         7.57029         1.71665
   H       -3.45966         8.96699         0.63477
   H       -4.95853         8.13805         1.06620
   H       -2.63042         2.47093         1.21834
   H       -7.16885        -0.64604         1.41392
   H       -6.29413         1.49379         0.76856
   H       -7.92875        -2.65487         1.96692
   H      -10.18899        -5.78968         4.33795
   H       -8.95931        -4.83733         5.16868
   H      -10.70031        -3.81253         2.87342
   H      -10.91606        -3.46181         4.58393
   H       -9.48162        -2.87631         3.74965
   H       -9.82392        -6.60944         2.05137
   H       -9.48810        -5.00216         1.39980
   H       -7.56895        -7.37556         1.30269
   H       -8.51119        -6.74268        -0.04868
   H       -7.23007        -5.76484         0.66877
   H       -9.13751        -8.15541         4.05817
   H       -4.35929        -6.84984         4.82540
   H       -3.20304        -9.19906         4.76716
   H       -3.45419       -10.83828         5.37546
   H       -4.85203        -9.63470         2.93647
   H       -3.51008       -10.78011         2.89563
   H       -5.07527       -11.27958         3.53606
   H       -4.08527        -9.93478         7.57127
   H       -3.83245        -8.29326         6.96949
   H       -6.41939        -9.34476         8.21504
   H       -5.25492        -8.27030         8.98886
   H       -6.18246        -7.70925         7.59610
   H       -5.48906       -12.40206         6.79067
   H      -10.80735       -15.59883         6.40721
   H       -9.99726       -13.40322         5.82918
   H       -8.60768       -18.22717         8.10120
   H      -13.04336       -21.84619         7.10776
   H      -11.49271       -22.05458         7.98098
   H      -14.06250       -20.88434         9.17019
   H      -13.43342       -22.50501         9.48235
   H      -12.52715       -21.09055        10.03136
*
