# ORCA input file
# SCF done       -244.776644081609          0.000315379227
! wb97x-d3 def2-SVP def2/J RIJCOSX Grid4 TightSCF
%maxcore 5000
%tddft
    Mode sTDA
    Ethresh 5.0
    maxcore 5000
end

%pal
  nprocs 6
  end
* xyz 0 1
   C        2.34224        -2.18095        -0.20867
   C        2.61760        -1.39445         0.93576
   C        1.67333        -0.52288         1.47256
   C        0.43778        -0.48575         0.86990
   C        0.14445        -1.31740        -0.23664
   C        1.10167        -2.15719        -0.80017
   C        3.54344        -3.03364        -0.58311
   C        4.46861        -2.74265         0.57085
   C        3.92892        -1.75185         1.37581
   C        5.70461        -3.19517         1.01356
   C        6.12180        -2.55470         2.17041
   S        4.95693        -1.34548         2.68744
   C       -0.78252         0.32393         1.27965
   C       -1.82431        -0.23836         0.34578
   C       -1.24006        -1.13490        -0.53517
   C       -3.19034        -0.08991         0.14717
   C       -3.66899        -0.89085        -0.88019
   S       -2.37379        -1.80951        -1.62940
   C       -1.06831         0.08249         2.74782
   C       -0.65539         1.80617         0.97113
   C        3.12215        -4.48219        -0.70672
   C        4.25260        -2.54749        -1.83748
   C        9.27995        -4.13067         3.74432
   C       10.32524        -5.00307         4.08708
   C       10.65296        -6.22296         3.56941
   C       -8.83936        -0.46752        -0.84242
   C      -10.06220        -0.90442        -1.26332
   C      -10.44635        -1.89034        -2.25961
   N      -11.83074        -2.04281        -2.28898
   C      -12.54803        -1.26764        -1.43661
   S      -11.50080        -0.23860        -0.49326
   C       10.01472        -6.95130         2.49742
   N       10.62106        -8.18682         2.30656
   C       11.66487        -8.47634         3.12650
   S       11.98793        -7.15868         4.22819
   C       10.07275        -9.08584         1.30796
   O        9.07669        -6.58081         1.81447
   C       12.43597        -9.61218         3.16108
   C       13.48821        -9.70296         4.09562
   C       12.29457       -10.74859         2.34803
   C        2.62781        -4.96022        -1.91413
   C        2.20385        -6.27018        -2.02930
   C        2.25737        -7.13520        -0.94403
   C        2.74351        -6.64989         0.26233
   C        3.16508        -5.33866         0.38405
   C        5.26532        -3.32831        -2.38254
   C        5.96864        -2.89367        -3.48850
   C        5.68755        -1.66582        -4.07528
   C        4.67864        -0.88871        -3.52438
   C        3.97135        -1.31869        -2.41552
   C       -0.45873         0.87312         3.71409
   C       -0.67986         0.63539         5.05714
   C       -1.50795        -0.39949         5.47192
   C       -2.10588        -1.19342         4.50270
   C       -1.88560        -0.96147         3.15755
   C       -1.62911         2.67771         1.44535
   C       -1.56935         4.02523         1.15043
   C       -0.54172         4.53896         0.36869
   C        0.42258         3.66326        -0.10930
   C        0.36636         2.31154         0.18150
   O       -9.72349        -2.53603        -2.99085
   C      -12.40925        -2.96855        -3.24535
   C      -13.90807        -1.23000        -1.24867
   C      -14.44548        -0.35202        -0.28463
   C      -14.87355        -1.99412        -1.92417
   N       14.34544        -9.78704         4.85329
   N       12.23184       -11.71072         1.72296
   N      -15.71668        -2.58173        -2.43797
   N      -14.89266         0.35802         0.49762
   C       -1.79060        -0.62128         6.92966
   C       -0.45078         6.01201         0.09309
   C        6.42527        -1.21421        -5.30258
   C        1.85057        -8.57338        -1.08681
   C        3.05188        -9.42768        -1.49688
   C        5.72124        -1.71591        -6.56498
   C        0.33169         6.71464         1.20453
   C       -3.02305         0.17636         7.36090
   C        9.10406       -10.08608         1.92766
   C      -12.87722        -2.25239        -4.50658
   C        9.02687        -2.93790         4.41605
   C        7.91614        -2.23529         3.96880
   C        7.29241        -2.88542         2.90299
   S        8.10022        -4.37012         2.48716
   C       -5.03304        -1.02256        -1.24924
   S       -6.21011        -0.12050        -0.33804
   C       -7.53731        -0.83630        -1.22859
   C       -7.04414        -1.70353        -2.18689
   C       -5.65516        -1.81832        -2.21046
   C        7.51154        -0.91552         4.54669
   C        7.94224         0.23762         3.63856
   C       -4.95727        -2.68826        -3.20724
   C       -4.44156        -1.86492        -4.38909
   H        1.90281         0.07666         2.34007
   H        0.86285        -2.77750        -1.65032
   H        6.28940        -3.96580         0.54480
   H       -3.83549         0.54770         0.72456
   H       10.94604        -4.65425         4.90502
   H       -8.87028         0.27749        -0.05439
   H        9.54019        -8.44897         0.59605
   H       10.88912        -9.59803         0.79678
   H        2.58742        -4.30584        -2.77333
   H        1.82533        -6.62641        -2.97700
   H        2.79115        -7.30540         1.12026
   H        3.53409        -4.98247         1.33486
   H        5.49686        -4.28604        -1.93979
   H        6.75225        -3.51399        -3.89960
   H        4.44409         0.07049        -3.96400
   H        3.19555        -0.69072        -2.00237
   H        0.18363         1.68824         3.41274
   H       -0.20051         1.26308         5.79502
   H       -2.75056        -2.00710         4.80335
   H       -2.35668        -1.59789         2.42247
   H       -2.43226         2.29643         2.05916
   H       -2.33343         4.68878         1.52962
   H        1.22934         4.04101        -0.72145
   H        1.12692         1.65058        -0.20768
   H      -11.61239        -3.67446        -3.49566
   H      -13.23314        -3.50556        -2.77286
   H       -1.96590        -1.68275         7.11589
   H       -0.93172        -0.30655         7.52574
   H        0.05064         6.18055        -0.86197
   H       -1.45341         6.44012         0.03341
   H        6.47232        -0.12359        -5.32629
   H        7.44644        -1.60017        -5.28313
   H        1.45344        -8.94226        -0.13901
   H        1.06907        -8.66434        -1.84382
   H        3.83825        -9.35765        -0.74871
   H        2.76087       -10.47047        -1.59926
   H        3.45336        -9.08371        -2.44751
   H        4.70499        -1.33055        -6.60963
   H        6.25590        -1.39014        -7.45414
   H        5.67520        -2.80266        -6.56564
   H        1.33918         6.30993         1.27176
   H        0.39824         7.78196         1.00732
   H       -0.16010         6.56847         2.16366
   H       -3.89352        -0.13272         6.78660
   H       -3.22922         0.01788         8.41679
   H       -2.86312         1.23922         7.19358
   H        8.28613        -9.56158         2.41677
   H        8.69612       -10.72107         1.14706
   H        9.60693       -10.71965         2.65440
   H      -12.04148        -1.74218        -4.98023
   H      -13.28329        -2.98045        -5.20217
   H      -13.65502        -1.52716        -4.27971
   H        9.64738        -2.60234         5.22931
   H       -7.69182        -2.24750        -2.84897
   H        6.43055        -0.88250         4.69258
   H        7.98638        -0.80117         5.52280
   H        7.47567         0.15154         2.66058
   H        7.65239         1.18878         4.07726
   H        9.02180         0.22979         3.50622
   H       -4.12637        -3.21724        -2.73688
   H       -5.66823        -3.43114        -3.57225
   H       -3.73589        -1.10831        -4.05475
   H       -3.94081        -2.51113        -5.10512
   H       -5.26974        -1.36759        -4.88857
*
