115
 SCF done       -196.489070316326          0.000506483842
C          -3.28306527598225   -1.84918810903996   -0.08791834555103
C          -3.90006835572426   -1.03828844391904    0.88463984861234
C          -5.07637839054148   -0.38246182729693    0.59650719307785
C          -5.65675367915734   -0.61843138318885   -0.64667807511025
C          -5.06827874125117   -1.47750949369388   -1.60513683256160
C          -3.85460994204138   -2.06914817665491   -1.33944310254453
C          -5.92640627941887   -1.56716630639902   -2.85411702659522
C          -7.02577949163239   -0.59369693322052   -2.51324214641239
C          -6.85101020367517   -0.08771096117787   -1.22225379511603
C          -8.16994167919443   -0.11872197785234   -3.11047044438008
C          -8.88412464187071    0.76735118431719   -2.28541233885792
S          -8.07972822528410    0.99152157173985   -0.73671169104949
C         -10.09304848789873    1.34010117043718   -2.68979213078967
C         -10.93722713618823    2.21126773474329   -2.04109110048548
C         -12.19525704048369    2.70864193907643   -2.55934926955333
C         -12.73006418691988    3.65176105747338   -1.57640926548451
C         -11.84830653786751    3.71534381985519   -0.48409017650617
C         -10.70414082781657    2.81245011931946   -0.72571440262850
C         -13.88036691017450    4.42270620450457   -1.57210479388005
C         -14.12951264610226    5.24323489688750   -0.47653058372713
C         -13.24568802174352    5.29805053159519    0.60578583459143
C         -12.09036977196298    4.52597065406171    0.60495858569863
O          -9.76598575945463    2.62660958430703    0.02793398992030
C         -12.81383648543460    2.36280063791102   -3.73375645188279
C         -14.05506823966363    2.88375937342911   -4.15679893279910
C         -12.32966419380989    1.43961511413797   -4.68378337594079
N         -12.01226116670998    0.70223747818717   -5.50599609885570
N         -15.05853312058120    3.26626330609278   -4.56215525277666
C          -5.15811711861318   -1.15431727239723   -4.11839898507424
C          -6.58245292972884   -2.95930139823666   -3.01104408463816
C          -2.04558429799412   -2.36140655267488    0.45536011167109
C          -1.89673784715053   -1.87615717924780    1.76907345685219
C          -3.05720631908211   -0.97688266592381    2.14189819413476
C          -2.62439672701139    0.49079716869395    2.34763012313720
C          -3.76461128501824   -1.59795938279644    3.36498112200840
C          -1.11561230424973   -3.21929708834594   -0.12801495484509
C          -0.04591324213620   -3.62683081310992    0.63601949735021
C           0.09345778721606   -3.14480733261306    1.95867939514824
C          -0.82846394655895   -2.27775020537800    2.53915601312653
C           1.10593538273801   -4.54987155869915    0.26629167240647
C           1.91065436929495   -4.52039502733725    1.54282752641161
C           1.29057431507113   -3.70606458689693    2.49531920711280
C           0.65372305987237   -6.00749593794098    0.03370074801307
C           1.86953032503078   -3.93360141818563   -0.92210737136202
C           3.04240098497659   -5.12513541729541    2.04081518273115
C           3.31598520165297   -4.76032301000045    3.37034127922520
S           2.10830243719608   -3.64347431564239    3.99089534685758
C           4.41197939219252   -5.27851453141731    4.06564697408550
C           4.84428069490802   -5.06295994061905    5.35358692373456
C           5.99450323422528   -5.69024914960587    5.97178585377912
C           6.10717262514500   -5.15436481184177    7.32885820191627
C           5.06012992864986   -4.24209850504658    7.54367330329562
C           4.23019331201090   -4.15397546604544    6.32452397292647
O           3.24255129297350   -3.45699630981754    6.17836936042034
C           6.83413699699222   -6.62697842718167    5.42498985992912
C           7.93209612679091   -7.19731293256570    6.10345479552159
N           8.83966367767895   -7.70256574101453    6.59214791538913
C           6.73736375063536   -7.16893715314604    4.12648709877630
N           6.73315121368404   -7.66488293320893    3.08997454323126
C           7.01956228565870   -5.39876187031455    8.34148571881897
C           6.86949400270281   -4.72793521324177    9.55105455833509
C           5.82314824663815   -3.82273265562497    9.75450410266226
C           4.90598973407227   -3.57458895031312    8.74052137466556
C          -0.21688487367695   -6.25339941328610   -1.19142067120958
C           3.11153435477283   -4.69899377263672   -1.35865864950571
C          -1.71037365611919    0.75970517760017    3.53574978478536
C          -5.00073359635280   -0.86625474553771    3.87123744009006
C          -4.61790189965588    0.26859661037911   -4.03290850357251
C          -5.62396775636351   -4.13048643565209   -3.17874282143106
Cl        -13.58508656365797    6.32229477590722    1.94190957782720
Cl        -15.55341359145795    6.20411962284285   -0.46484201300419
Cl          7.99774961258830   -5.02526332403134   10.81173946689587
Cl          5.66785302081427   -3.01276981984840   11.26089008063894
H          -5.54796868838973    0.30185523816375    1.28345789561869
H          -3.34563277640508   -2.67606826501339   -2.07177937690545
H          -8.51521114049782   -0.37263801744003   -4.09720331228162
H         -10.39544090692817    1.02631447068178   -3.68166694500632
H         -14.58540939769958    4.40972720195896   -2.38674391116119
H         -11.39923163195099    4.55793904854095    1.43228077313369
H          -4.32521703794182   -1.84172838743312   -4.26958487543033
H          -5.82742529694833   -1.23926344793074   -4.97684835686470
H          -7.20258734553061   -3.13907039500142   -2.12900486359610
H          -7.24617520503969   -2.91248121453177   -3.87720402814660
H          -2.11837225287833    0.81407586225996    1.43356898269922
H          -3.52663349509357    1.09597811916137    2.44797278440313
H          -4.04543949619642   -2.62022749666113    3.09640095353042
H          -3.03610617581982   -1.66607299454467    4.17424293250641
H          -1.24535045429666   -3.54469758937478   -1.14798382924446
H          -0.68916364933537   -1.95858421001879    3.55968358964618
H           1.55035141538089   -6.62555929969326   -0.03513907903908
H           0.10631810577968   -6.32766850330055    0.92431805928415
H           1.18221131122777   -3.84724539766636   -1.76493457123026
H           2.15995596627327   -2.91924447142906   -0.63540465321982
H           3.67271734680926   -5.81945083396005    1.51395532656706
H           5.00042124843444   -5.96627361267074    3.47030086057671
H           7.83928759652107   -6.08805349493090    8.22395953103651
H           4.09410374451140   -2.87907866738208    8.88279398561316
H           0.26889731690931   -5.91023270363346   -2.10078446834464
H          -0.40017423822765   -7.32122311187367   -1.29062922005344
H          -1.17851429421005   -5.75809799194819   -1.09318446245220
H           2.86586705913214   -5.70963202092142   -1.67267492967407
H           3.57412953220324   -4.18743939903036   -2.19991875053695
H           3.83956657601535   -4.74833071249329   -0.55413506128076
H          -0.74756981057965    0.27355302986980    3.40787025388491
H          -1.53566924080059    1.83061381226404    3.61664063844307
H          -2.15715373182623    0.42132832680006    4.46650264792795
H          -5.80231856917008   -0.89606158530772    3.13903549764958
H          -5.35765807661460   -1.35308770158058    4.77652572943495
H          -4.77955170903471    0.16976626297728    4.11238325389062
H          -3.95071174666534    0.37515261684757   -3.18014491315362
H          -4.06436643661556    0.51301558375209   -4.93634859358956
H          -5.42927679946251    0.98454102751554   -3.92444352529588
H          -5.01593266055541   -4.26494148518186   -2.28836025136747
H          -6.19697632099594   -5.04164897488454   -3.33573677232994
H          -4.97286260426651   -3.99186147115691   -4.03763649207806
