# ORCA input file
# SCF done       -197.177784524292          0.000861411022
! wb97x-d3 def2-SVP def2/J RIJCOSX Grid4 TightSCF
%maxcore 5000
%tddft
    Mode sTDA
    Ethresh 5.0
    maxcore 5000
end

%pal
  nprocs 6
  end
* xyz 0 1
   C        5.07575         0.43405         2.09099
   O        5.43350        -0.54275         2.72328
   C        5.82280         1.70321         1.95637
   C        7.05065         2.03605         2.49186
   C        7.55095         3.29823         2.21470
   F        8.73902         3.66450         2.71149
   C        6.82866         4.18983         1.42190
   F        7.33627         5.40150         1.16807
   C        5.59383         3.85445         0.88563
   C        5.08629         2.59392         1.15814
   C        3.84009         1.94080         0.75053
   C        2.86610         2.52138        -0.02055
   C        1.65565         1.91637        -0.41908
   N        0.64831         1.50201        -0.78443
   C        2.93930         3.83535        -0.53036
   N        2.93474         4.89334        -0.97529
   C        3.84634         0.60722         1.31527
   C        2.12740       -18.28018         6.47996
   O        1.33882       -17.70029         5.76092
   C        2.14843       -19.74308         6.70431
   C        1.33421       -20.70033         6.13231
   C        1.55120       -22.02177         6.48596
   F        0.78840       -22.98534         5.95448
   C        2.55992       -22.35768         7.38919
   F        2.75225       -23.64266         7.70874
   C        3.37380       -21.39426         7.96635
   C        3.16196       -20.06917         7.61768
   C        3.82695       -18.83463         8.03591
   C        4.79800       -18.76544         9.00105
   C        5.41470       -17.59417         9.49178
   N        5.96713       -16.70346         9.96240
   C        5.31177       -19.88869         9.68495
   N        5.77693       -20.75510        10.27691
   C        3.23443       -17.73765         7.28971
   C        3.01115        -5.20950         3.11590
   C        1.87822        -5.91371         2.65083
   C        1.68036        -7.22745         3.00753
   C        2.63409        -7.82435         3.82859
   C        3.76006        -7.12004         4.28991
   C        3.96091        -5.80302         3.94322
   C        4.62975        -8.00115         5.16697
   C        5.99957        -8.12933         4.46082
   C        7.08213        -8.91139         5.19123
   C        4.72530        -7.33854         6.56356
   C        4.88638        -8.26616         7.76189
   C        3.85855        -9.30370         5.13797
   C        2.70121        -9.17360         4.34137
   C        1.82445       -10.23199         4.11723
   C        2.12751       -11.45212         4.67619
   C        3.27442       -11.57440         5.49465
   C        4.14576       -10.51403         5.73096
   C        2.86906        -0.34376         1.13148
   C        3.72446       -16.45314         7.32566
   C        3.30413       -12.91779         5.97365
   C        2.21718       -13.64148         5.48002
   C        1.37115       -12.76813         4.58793
   S        4.33054       -13.85264         6.96096
   C        3.30989       -15.27360         6.69353
   C        2.22669       -14.96684         5.86998
   C        1.00515        -5.03742         1.76366
   C        1.77895        -3.74430         1.80026
   C        2.93517        -3.88964         2.57745
   C        1.68804        -2.48333         1.25464
   C        2.77050        -1.65601         1.60068
   S        3.91311        -2.49471         2.63982
   C        1.41262       -13.37879         3.16995
   C       -0.05318       -12.56834         5.14110
   C       -0.41428        -4.94769         2.37157
   C        1.01751        -5.65664         0.34835
   C       -1.13661        -3.61987         2.17669
   C        0.21708        -4.90967        -0.70883
   C        0.65499       -12.61464         2.09263
   C       -0.91422       -13.82405         5.17523
   H        7.60533         1.34252         3.10347
   H        5.07818         4.58066         0.27932
   H        0.55732       -20.43356         5.43369
   H        4.13863       -21.70924         8.65658
   H        0.81781        -7.78061         2.66847
   H        4.81130        -5.23583         4.28908
   H        5.82420        -8.59315         3.48586
   H        6.36933        -7.11777         4.27827
   H        6.78813        -9.94435         5.35012
   H        7.98696        -8.91197         4.58655
   H        7.32070        -8.45487         6.14741
   H        5.55585        -6.63041         6.54065
   H        3.81026        -6.75992         6.71755
   H        5.78425        -8.87176         7.69265
   H        4.95603        -7.66436         8.66600
   H        4.02650        -8.92382         7.86116
   H        0.93794       -10.08162         3.52200
   H        5.00224       -10.66913         6.36561
   H        2.02901        -0.05457         0.51160
   H        4.60858       -16.31150         7.93591
   H        1.51076       -15.71418         5.58424
   H        0.89408        -2.11771         0.62886
   H        2.46276       -13.45430         2.87461
   H        1.02002       -14.39448         3.23559
   H        0.04045       -12.17246         6.15614
   H       -0.55043       -11.80472         4.54105
   H       -1.01685        -5.75433         1.94984
   H       -0.33234        -5.12945         3.44637
   H        2.06014        -5.72175         0.02516
   H        0.63547        -6.67692         0.42669
   H       -1.23378        -3.36246         1.12704
   H       -2.13535        -3.69009         2.60271
   H       -0.60941        -2.81617         2.68429
   H        0.57285        -3.88977        -0.82072
   H        0.33146        -5.41243        -1.66695
   H       -0.84088        -4.89340        -0.46330
   H        1.10253       -11.64041         1.91684
   H        0.69734       -13.17508         1.16113
   H       -0.39037       -12.48316         2.35824
   H       -1.06225       -14.23137         4.17912
   H       -0.46538       -14.58922         5.80152
   H       -1.89059       -13.57990         5.58838
*
