# ORCA input file
# SCF done       -186.637263090122          0.000947923596
! wb97x-d3 def2-SVP def2/J RIJCOSX Grid4 TightSCF
%maxcore 5000
%tddft
    Mode sTDA
    Ethresh 5.0
    maxcore 5000
end

%pal
  nprocs 6
  end
* xyz 0 1
   C       -6.13042        -1.38703         3.92611
   O       -5.77182        -2.50790         4.24286
   C       -6.90339        -0.44861         4.76076
   C       -7.36849        -0.61948         6.04619
   C       -8.08072         0.41689         6.65044
   C       -8.29923         1.59034         5.93552
   C       -7.83392         1.76791         4.63960
   C       -7.12681         0.73843         4.03998
   C       -6.51555         0.61197         2.71918
   C       -6.55897         1.56707         1.73533
   C       -7.20054         2.81566         1.87334
   N       -7.69879         3.84953         1.91349
   C       -5.99202         1.45907         0.44910
   N       -5.56210         1.45675        -0.61695
   C       -5.88787        -0.69379         2.65564
   C       -5.17162        -1.18574         1.59365
   C       -4.52836        -2.41664         1.41389
   C       -3.82684        -2.71597         0.23610
   C       -3.28349        -3.98212         0.24441
   C       -3.54228        -4.65481         1.44054
   S       -4.47342        -3.75318         2.55241
   C       -2.92952        -5.94499         1.42272
   C       -2.27053        -6.08293         0.17903
   C       -2.42256        -4.82558        -0.66354
   C       -3.13025        -5.18780        -1.98284
   C       -3.41868        -4.01252        -2.90743
   C       -1.08105        -4.08521        -0.85386
   C       -0.03560        -4.80885        -1.69177
   C       -1.65683        -7.27287        -0.13952
   C       -1.65352        -8.28239         0.81990
   C       -2.26182        -8.12053         2.07914
   C       -2.93841        -6.95834         2.37728
   C       -2.11296        -9.37939         2.90940
   C       -1.24596        -9.15995         4.16749
   C       -1.82626        -8.23617         5.23011
   C       -3.52813        -9.91684         3.21061
   C       -3.59849       -11.22762         3.98306
   C       -1.33892       -10.27453         1.96293
   C       -1.08881        -9.61085         0.74613
   C       -0.38036       -10.21345        -0.29083
   C        0.08957       -11.48952        -0.08793
   C       -0.13487       -12.14220         1.14619
   C       -0.84143       -11.54078         2.18305
   C        0.49585       -13.42158         1.06023
   C        1.10352       -13.58771        -0.18293
   C        0.88675       -12.36712        -1.03324
   C        2.22385       -11.71313        -1.42772
   C        3.08460       -11.34729        -0.22466
   C        0.08223       -12.70393        -2.30311
   C       -1.26093       -13.35752        -2.00144
   C        1.74660       -14.80382        -0.32364
   C        1.64133       -15.59227         0.81927
   S        0.70031       -14.77578         2.07593
   C        2.11170       -16.87520         1.14467
   C        2.93797       -17.74212         0.47710
   C        3.30140       -19.05186         0.99502
   C        2.71599       -19.72588         2.03593
   C        3.12457       -21.00219         2.47707
   N        3.40202       -22.03687         2.89098
   C        1.61074       -19.29083         2.79722
   N        0.70657       -19.03254         3.45800
   C        4.37593       -19.57808         0.16021
   C        5.13531       -20.73550         0.24038
   C        6.09834       -20.96678        -0.73031
   C        6.32582       -20.08075        -1.78113
   C        5.56418       -18.91688        -1.85836
   C        4.60788       -18.67933        -0.89346
   C        3.70145       -17.52051        -0.77068
   O        3.63753       -16.59326        -1.55389
   C        7.38887       -20.36127        -2.79506
   C       -8.59750         0.25237         8.04414
   H       -7.17877        -1.54424         6.57057
   H       -8.84941         2.39406         6.40296
   H       -8.02716         2.69571         4.12676
   H       -5.06552        -0.52954         0.73803
   H       -3.74257        -1.99650        -0.55899
   H       -2.51865        -5.92032        -2.51162
   H       -4.07339        -5.67757        -1.72580
   H       -3.91043        -4.37352        -3.80823
   H       -4.07912        -3.29508        -2.42951
   H       -2.50423        -3.50566        -3.20306
   H       -1.29534        -3.11483        -1.30461
   H       -0.66627        -3.89720         0.14021
   H       -0.41128        -5.03778        -2.68542
   H        0.83973        -4.17196        -1.80138
   H        0.27901        -5.73025        -1.20988
   H       -1.20025        -7.43966        -1.10244
   H       -3.47665        -6.81512         3.30072
   H       -1.04833       -10.13545         4.61465
   H       -0.28521        -8.75591         3.83594
   H       -2.79750        -8.58328         5.57178
   H       -1.15675        -8.21306         6.08764
   H       -1.92448        -7.22135         4.85595
   H       -4.06791        -9.14768         3.76492
   H       -4.04057       -10.04445         2.25291
   H       -3.06394       -11.16303         4.92690
   H       -4.63912       -11.45867         4.20133
   H       -3.19045       -12.04841         3.40027
   H       -0.20238        -9.68777        -1.21678
   H       -0.96880       -12.06252         3.11837
   H        2.77164       -12.40851        -2.06643
   H        2.01350       -10.81403        -2.01048
   H        3.34245       -12.23509         0.34802
   H        4.00655       -10.87566        -0.55614
   H        2.55921       -10.65536         0.43040
   H       -0.08166       -11.78215        -2.86502
   H        0.68124       -13.37437        -2.92233
   H       -1.87896       -12.70471        -1.38856
   H       -1.79127       -13.56344        -2.92810
   H       -1.12260       -14.29715        -1.47163
   H        2.28070       -15.13242        -1.19551
   H        1.76632       -17.21282         2.11521
   H        4.99677       -21.44941         1.03547
   H        6.69250       -21.86704        -0.66906
   H        5.71081       -18.20453        -2.65662
   H        7.14174       -19.90764        -3.75171
   H        8.33791       -19.94160        -2.45907
   H        7.52522       -21.43133        -2.93146
   H       -9.32143        -0.56101         8.08169
   H       -7.78327        -0.00010         8.72183
   H       -9.07760         1.16159         8.39569
*
