# ORCA input file
# SCF done       -208.124413193788          0.000320189777
! wb97x-d3 def2-SVP def2/J RIJCOSX Grid4 TightSCF
%maxcore 5000
%tddft
    Mode sTDA
    Ethresh 5.0
    maxcore 5000
end

%pal
  nprocs 6
  end
* xyz 0 1
   C        2.24601         4.76940        -0.41902
   C        2.91190         5.55906         0.51918
   C        1.57660         5.61734        -1.47097
   C        1.88714         6.99719        -0.94278
   C        2.69560         6.91526         0.20771
   C        2.28051         5.34491        -2.81998
   C        0.06641         5.34798        -1.55278
   C        1.55326         8.29182        -1.27211
   C        2.10736         9.23094        -0.39809
   S        3.07336         8.44258         0.86171
   C        2.02983        10.62557        -0.32136
   C        1.33875        11.55409        -1.06745
   C        1.37349        12.97933        -0.79188
   C        0.43732        13.63361        -1.70751
   C       -0.11935        12.65926        -2.54910
   C        0.42855        11.32835        -2.20449
   O        0.15091        10.29436        -2.77951
   C        2.14246        13.64176         0.13066
   C        2.11275        15.03973         0.32509
   N        2.14029        16.16664         0.54127
   C        3.08549        13.07132         1.01238
   N        3.87767        12.71009         1.76213
   C        0.05599        14.95945        -1.84458
   C       -0.87435        15.27198        -2.82480
   C       -1.41862        14.29545        -3.65878
   C       -1.04255        12.96879        -3.52785
   C        1.80521         6.21580        -3.97434
   C       -0.62639         5.46240        -0.19991
   F       -1.25807        16.54582        -2.96935
   F       -2.31388        14.64303        -4.59209
   S        3.71288         4.65449         1.76011
   C        3.13559         3.18005         1.03971
   C        2.38152         3.41909        -0.13217
   C        3.23970         1.82621         1.34116
   C        2.58893         1.04740         0.38188
   S        1.81660         1.95177        -0.87300
   C        3.88471         0.95494         2.39132
   C        3.53026        -0.41050         1.85836
   C        2.76167        -0.31839         0.70116
   C        3.21529         1.08803         3.77820
   C        5.40300         1.17851         2.46655
   C        6.11050         0.86583         1.15316
   C        3.41662         2.42482         4.47579
   C        3.70927        -1.73093         2.24822
   C        3.07258        -2.64891         1.38158
   S        2.26630        -1.84702         0.06040
   S        4.54104        -2.50967         3.55656
   C        4.03371        -4.04353         2.93546
   C        3.24640        -3.96820         1.78255
   C        4.24146        -5.39325         3.27972
   C        3.58849        -6.19604         2.32504
   C        2.85585        -5.34755         1.30966
   C        1.34561        -5.62615         1.48790
   C        3.31987        -5.60612        -0.13151
   C        4.83230        -5.50123        -0.28909
   C        0.41781        -4.79045         0.61798
   S        5.03789        -6.28563         4.49998
   C        4.49752        -7.78336         3.74642
   C        3.73519        -7.53360         2.58933
   C        4.73645        -9.08094         4.20047
   C        5.40435        -9.53294         5.31737
   C        5.55542       -10.91745         5.70972
   C        6.29631       -10.93500         6.97359
   C        6.60055        -9.61254         7.33698
   C        6.06117        -8.69001         6.31554
   O        6.15708        -7.47559         6.32484
   C        5.10286       -12.03173         5.04989
   C        5.29310       -13.35316         5.50661
   N        5.41063       -14.45096         5.82057
   C        4.39037       -12.03854         3.83277
   N        3.80816       -12.13457         2.84683
   C        6.69741       -11.98177         7.78814
   C        7.39455       -11.67492         8.94802
   C        7.69250       -10.35848         9.29857
   C        7.29523        -9.30580         8.48945
   F        7.78822       -12.67217         9.74852
   F        8.36726       -10.10890        10.42772
   H        3.35335         5.49868        -2.67671
   H        2.12514         4.29223        -3.06858
   H       -0.37738         6.06777        -2.24005
   H       -0.08387         4.34435        -1.95668
   H        0.92213         8.59048        -2.08844
   H        2.61147        11.03123         0.49764
   H        0.44297        15.75339        -1.22786
   H       -1.45996        12.20819        -4.16816
   H        1.94861         7.26928        -3.75248
   H        2.38035         5.97475        -4.86536
   H        0.75579         6.04354        -4.19461
   H       -0.48482         6.45482         0.22219
   H       -1.69329         5.28882        -0.31456
   H       -0.23545         4.73024         0.50337
   H        2.14438         0.90775         3.65271
   H        3.61525         0.28970         4.40801
   H        5.58635         2.22065         2.73083
   H        5.80547         0.54344         3.25808
   H        5.71926         1.48188         0.34634
   H        7.17472         1.06464         1.24971
   H        5.98164        -0.17909         0.88030
   H        3.01314         3.24120         3.88452
   H        2.89688         2.41069         5.43086
   H        4.46788         2.61837         4.66711
   H        1.18214        -6.68438         1.27433
   H        1.09579        -5.45843         2.53875
   H        2.99036        -6.60320        -0.42851
   H        2.84205        -4.87643        -0.78688
   H        5.33934        -6.23423         0.33392
   H        5.11063        -5.67989        -1.32462
   H        5.18245        -4.51059        -0.00702
   H        0.60619        -4.95684        -0.43866
   H       -0.61295        -5.06870         0.82489
   H        0.52948        -3.73136         0.82987
   H        3.32728        -8.33661         2.00119
   H        4.30117        -9.83872         3.56062
   H        6.49317       -13.01586         7.56495
   H        7.52241        -8.28603         8.75621
*
