# ORCA input file
# SCF done       -205.329623021201          0.000818651226
! wb97x-d3 def2-SVP def2/J RIJCOSX Grid4 TightSCF
%maxcore 5000
%tddft
    Mode sTDA
    Ethresh 5.0
    maxcore 5000
end

%pal
  nprocs 6
  end
* xyz 0 1
   C        2.14986        -2.40064        -0.16694
   C        2.17806        -1.71356         1.07022
   C        1.19532        -0.79225         1.42415
   C        0.17885        -0.57973         0.52292
   C        0.12903        -1.29783        -0.69594
   C        1.11721        -2.21096        -1.05474
   C        3.34601        -3.32870        -0.30266
   C        4.01947        -3.12457         1.03033
   C        3.33412        -2.17244         1.77193
   C        5.14927        -3.61274         1.67398
   C        5.32802        -3.04230         2.92347
   S        4.07052        -1.86754         3.28734
   C       -1.01222         0.35605         0.65236
   C       -1.76795         0.03492        -0.61194
   C       -1.06464        -0.89213        -1.36648
   C       -2.94660         0.45520        -1.21735
   C       -3.15641        -0.16117        -2.43850
   S       -1.85160        -1.26951        -2.84028
   C        6.35788        -3.31300         3.87198
   C       -4.26027         0.00548        -3.32855
   C       -1.75955         0.02035         1.92762
   C       -0.64044         1.82763         0.58708
   C        2.84607        -4.74071        -0.53626
   C        4.33022        -2.89905        -1.37707
   C        6.41745        -2.67072         5.10676
   C        7.40072        -2.91979         6.05356
   C        8.42320        -3.84232         5.84703
   C        8.40471        -4.51965         4.59607
   C        7.38593        -4.26385         3.61438
   C       -4.34718        -0.67983        -4.53710
   C       -5.40520        -0.52561        -5.42244
   C       -6.45651         0.35457        -5.19020
   C       -6.43789         1.03336        -3.94556
   C       -5.34974         0.86717        -3.01923
   N        9.27782        -5.43522         4.18367
   S        8.86325        -5.92711         2.71133
   N        7.55856        -5.00709         2.52272
   N       -7.39405         1.81693        -3.45537
   S       -6.95780         2.33402        -2.00268
   N       -5.54708         1.56922        -1.90405
   C        2.57336        -5.17591        -1.82722
   C        2.07726        -6.44622        -2.04932
   C        1.83449        -7.31259        -0.99133
   C        2.10029        -6.86950         0.29719
   C        2.59407        -5.59824         0.52513
   C        5.35924        -3.76387        -1.73143
   C        6.29692        -3.39006        -2.67363
   C        6.23902        -2.14163        -3.28097
   C        5.21650        -1.27804        -2.91473
   C        4.27524        -1.64659        -1.96995
   C       -1.37563         0.60060         3.13033
   C       -2.01531         0.26316         4.30749
   C       -3.04972        -0.66390         4.31750
   C       -3.42648        -1.24338         3.11377
   C       -2.78693        -0.91209         1.93329
   C       -1.60736         2.77991         0.88812
   C       -1.32195         4.12684         0.78348
   C       -0.06865         4.56029         0.36818
   C        0.89069         3.60515         0.06368
   C        0.60971         2.25405         0.16462
   C       -3.77360        -0.99207         5.59126
   C        0.25188         6.02527         0.29672
   C        7.22702        -1.75762        -4.34415
   C        1.34691        -8.71101        -1.23793
   C        2.53025        -9.66685        -1.40292
   C        6.71785        -2.18411        -5.72265
   C       -4.93067        -0.01632         5.81537
   C        0.76441         6.52719         1.64821
   C        9.46702        -4.16279         6.76547
   C        9.69080        -3.66214         8.01263
   C       -7.49590         0.52879        -6.15927
   C       -8.27660         1.62836        -6.32855
   C       10.79734        -4.12606         8.76157
   C        8.92329        -2.69413         8.69213
   C       -9.29112         1.62272        -7.31472
   C       -8.11856         2.87967        -5.69032
   N       11.69622        -4.50096         9.36649
   N        8.33998        -1.91166         9.29670
   N       -8.00215         3.95644        -5.31146
   N      -10.11652         1.60034        -8.11002
   H        1.23903        -0.27311         2.36906
   H        1.06465        -2.74262        -1.99225
   H        5.82432        -4.35153         1.28506
   H       -3.64329         1.16487        -0.81271
   H        5.65544        -1.94114         5.33945
   H        7.36297        -2.37383         6.98255
   H       -3.54996        -1.36058        -4.79804
   H       -5.39307        -1.08468        -6.34693
   H        2.76327        -4.52075        -2.66532
   H        1.87399        -6.76936        -3.06049
   H        1.91543        -7.52627         1.13541
   H        2.78709        -5.27459         1.53761
   H        5.41734        -4.73978        -1.27186
   H        7.08819        -4.07621        -2.94012
   H        5.15535        -0.30018        -3.37103
   H        3.49334        -0.95249        -1.69853
   H       -0.57879         1.33037         3.14328
   H       -1.70465         0.72493         5.23394
   H       -4.22830        -1.96793         3.09863
   H       -3.09353        -1.38240         1.01026
   H       -2.58684         2.46072         1.21327
   H       -2.08510         4.85379         1.02199
   H        1.87161         3.91988        -0.26344
   H        1.37229         1.53138        -0.08695
   H       -4.16549        -2.00998         5.54288
   H       -3.08356        -0.93103         6.43524
   H        1.01417         6.20105        -0.46491
   H       -0.64305         6.58650         0.02073
   H        7.37957        -0.67656        -4.33574
   H        8.18693        -2.24024        -4.15011
   H        0.73159        -9.04197        -0.39888
   H        0.73513        -8.73654        -2.14188
   H        3.15304        -9.65463        -0.51118
   H        2.17934       -10.68286        -1.56778
   H        3.14226        -9.36848        -2.25127
   H        5.76492        -1.70578        -5.93812
   H        7.42990        -1.90393        -6.49528
   H        6.57461        -3.26192        -5.75607
   H       -5.63612        -0.07015         4.98914
   H       -5.45613        -0.25440         6.73717
   H       -4.55824         1.00351         5.88097
   H        1.66404         5.98747         1.93565
   H        0.99721         7.58814         1.59670
   H        0.01239         6.37335         2.41887
   H       10.16578        -4.90891         6.40575
   H       -7.64790        -0.29504        -6.84776
*
