160
 SCF done       -272.769758263095          0.001312739566
C           2.12078375192405   -2.20886017208551   -0.21922421806916
C           2.37017859755565   -1.57090721403238    1.02215017575323
C           1.41558243933435   -0.76846207982380    1.64068042715591
C           0.19416753241570   -0.65235693182851    1.01967597800616
C          -0.08384056268092   -1.35607723765516   -0.17669511830792
C           0.88679571798483   -2.12235725492658   -0.81864188653238
C           3.34586032232137   -2.97332474446682   -0.69246989512777
C           4.25333045487080   -2.80201720318007    0.49399541890011
C           3.67707359629972   -1.97648152114830    1.43911902297242
C           5.46578021997754   -3.34542379368791    0.90349399525342
C           5.82063592663454   -2.95466968374002    2.18073806677581
S           4.64029041381190   -1.84123789169511    2.85993404453529
C          -1.01743976416321    0.14547120720349    1.47128079947254
C          -2.05474578397507   -0.33303839369889    0.48719464483311
C          -1.46264792678510   -1.14027804332083   -0.47882090803621
C          -3.41572901427598   -0.16151745779086    0.29468837758518
C          -3.87250510626054   -0.85259420690695   -0.82135239463514
S          -2.57993957307264   -1.69270174936987   -1.65720912379716
C           6.83148434668639   -3.68204240889644    2.90358160818194
C          -5.20661608389565   -0.96693545086128   -1.25337657582144
C          -1.33410228773346   -0.15079063080215    2.92084295062202
C          -0.85675913319974    1.63965412670544    1.22916035928320
C           3.02786323830448   -4.42849505264552   -0.98505589463477
C           4.03323017367826   -2.31930224398373   -1.88231423217267
C           2.50885824077465   -4.78885867484806   -2.22331219873835
C           2.25142203441608   -6.11294387161910   -2.52004003240533
C           2.51196963354300   -7.11785985115593   -1.59584508005206
C           3.00709816113189   -6.75096552440310   -0.35353599721704
C           3.25122376690805   -5.42485398503210   -0.04550327843070
C           5.05806250314759   -3.00281041362090   -2.52675728648287
C           5.74397841933843   -2.41510634985061   -3.57136603042198
C           5.43327525134776   -1.12893540061416   -3.99547923418274
C           4.41235855942307   -0.45011557019162   -3.34555301777985
C           3.72254024788324   -1.03285788787917   -2.29719304556020
C          -0.71552453945495    0.57656419100391    3.93031434187402
C          -0.98041679917487    0.29983719730041    5.25785024109364
C          -1.86430329979712   -0.71085714400209    5.61307109993296
C          -2.46770695572263   -1.44476802769345    4.60090387992422
C          -2.20264915747361   -1.17470557155996    3.27100855312627
C          -1.82398621922841    2.50778227168130    1.72226273936253
C          -1.74162417425133    3.86401524054412    1.47610773448824
C          -0.69774531191564    4.39055320399217    0.72512120012665
C           0.26272310550750    3.51910509137653    0.23211244006046
C           0.18426334845312    2.15902170807400    0.47433248533810
C          -2.20256651694808   -0.96414243208450    7.05367390284462
C          -0.58698122818146    5.87000109545934    0.49404114103594
C           6.15244965572019   -0.50867994782820   -5.15842784567484
C           2.30792239767912   -8.56167025315608   -1.95281804010953
C           5.44409560843382   -0.85330978004504   -6.47005314104195
C           3.41420809099292   -9.04477850774306   -2.89304455510234
C          -3.39485856144373   -0.10355895252434    7.47710479237420
C           0.19849569252282    6.53130982029766    1.62834955383715
S          -6.53139353043812   -0.30674362208383   -0.35913837398266
C          -7.67856612301936   -0.96217348163608   -1.50422839717699
C          -7.01532103409373   -1.64474089469685   -2.53393621537345
C          -5.63973944778789   -1.66039171057048   -2.39974947287897
S           6.64103513462973   -5.39696824588391    2.63872637988822
C           8.11989424147602   -5.77710840763177    3.46462385103918
C           8.66658866530603   -4.62522016293687    3.98509925136904
C           7.96586005179031   -3.44036475162743    3.66651360669407
O           8.52065276798254   -2.27889760237444    4.05940277876401
C           7.81039619167437   -1.06064806795366    3.92795410627771
C           6.85124239179414   -0.84640731060178    5.09292467627028
C           8.56052284810933   -7.11682734290345    3.59045918071452
C           8.15322684714156   -8.17986867601506    2.83988597034361
C           8.24774893385292   -9.56503314151184    3.37086597615044
C           7.27462173834711  -10.34342225918505    2.56511405963967
C           6.75490448166389   -9.53128349726617    1.54034857802997
C           7.42407492335570   -8.23631284741542    1.58683015918605
C           6.85190830192457  -11.64668186396967    2.73086024682504
C           5.87948460794736  -12.14062468526895    1.86837622556006
C           5.34471668976031  -11.32838699851135    0.86174122759186
C           5.78321782014362  -10.02101832469368    0.68543974956791
O           8.92198382844083   -9.95206314728993    4.29517350943993
C           7.55538715582907   -7.38102962325374    0.52590587674847
C           8.44945170703849   -6.28779824720695    0.52010270131652
C           6.85650063995063   -7.51320205318824   -0.68942054628699
N           6.29249048960465   -7.54520423490928   -1.68920299143918
N           9.19352414035576   -5.41663407095463    0.45471350290152
Cl          4.12413027044825  -11.94357841000367   -0.17649016278973
Cl          5.32844871774110  -13.75812092801551    2.04622332199257
O          -4.71416312517546   -2.23487260689904   -3.19197655064709
C          -5.16130348765774   -2.95578452468392   -4.32865960575342
C          -3.93417109876963   -3.51066780522145   -5.03127188093981
C          -9.06971327990663   -0.88272800285708   -1.44630711625726
C          -9.89157384617468   -0.31711462813001   -0.49425755402184
C          -9.43988446326354    0.36933660081795    0.71411638699965
C         -10.66450167698880    0.74370429263707    1.45154559405221
C         -11.79011815339998    0.32293142905731    0.72272006417149
C         -11.33679913903501   -0.33362173424577   -0.50525363500886
C         -10.77864111262075    1.39169944518714    2.66311882165711
C         -12.05320340347478    1.62640182841616    3.16542189650598
C         -13.17923236303360    1.21237768383517    2.44878952178021
C         -13.05784167089979    0.56008900490319    1.22528988035346
O          -8.29367555466824    0.59784022639733    1.06225511780431
C         -12.16458935042084   -0.85817573714518   -1.46724565710301
C         -11.75001973246927   -1.49032577873606   -2.65701573391243
C         -13.57284486350369   -0.83452049115675   -1.39706095070841
N         -11.50021155898642   -2.01811395839416   -3.64717992012601
N         -14.72068794272376   -0.85368199269829   -1.40542157630571
Cl        -12.23981361215129    2.42677042534949    4.67409173847282
Cl        -14.74952191271414    1.50655041959518    3.08102343487915
H           1.62861723173968   -0.27284275546789    2.57550898247044
H           0.66317163810415   -2.63485432890489   -1.74117327173313
H           6.07362594966617   -4.00778229703638    0.31359706226715
H          -4.07764897108702    0.40830109442621    0.92118518361573
H           2.32790965822644   -4.02778285660305   -2.96898280181624
H           1.85220314933141   -6.37234592640285   -3.49011749344325
H           3.20826204120897   -7.51056808653817    0.38963493901219
H           3.63265682294622   -5.17646745946569    0.93416268277653
H           5.31401941400522   -4.00476217473072   -2.21414448680306
H           6.53716142596812   -2.96190450426824   -4.06049835065004
H           4.15453396623334    0.55206711157598   -3.65802874719862
H           2.93711197359868   -0.47897061417977   -1.80388478576980
H          -0.03393231855643    1.37539165868833    3.67453417725401
H          -0.49491405940828    0.87938388692949    6.03038032010224
H          -3.15472855853958   -2.23923233259324    4.85550852858338
H          -2.68083675194082   -1.76197754064830    2.50068706650171
H          -2.64238734585518    2.11634424676054    2.30849389552892
H          -2.50269989259605    4.52395982260379    1.86720638702379
H           1.08300072916855    3.90655705814191   -0.35560673734552
H           0.94184095160937    1.50300476512094    0.07150084185042
H          -2.45010915668112   -2.01776987208804    7.19726746624950
H          -1.34401356836336   -0.72513042789131    7.68449177171707
H          -0.07886476598505    6.05976547353141   -0.45352265804317
H          -1.58400365471399    6.31177720209065    0.44187989853343
H           6.18255979567970    0.57641984852764   -5.03990161923946
H           7.17930216196396   -0.87735352204443   -5.19691333273768
H           2.31218768415627   -9.16842155555202   -1.04477000590766
H           1.33873717159463   -8.69013823098842   -2.44121922592009
H           4.42170078861158   -0.48201355609387   -6.45655084731752
H           5.96533179474512   -0.40621020428777   -7.31329479699290
H           5.41465406132495   -1.93136681336132   -6.61114605678387
H           4.39252788306590   -8.84015690340644   -2.46492279801485
H           3.32279588962628  -10.11410869841112   -3.06972293336756
H           3.35376644304345   -8.52897640679603   -3.84810190253150
H          -4.26363590572231   -0.33434255205501    6.86480597120299
H          -3.64558359084719   -0.28562843625156    8.51944752580112
H          -3.16165116696986    0.95185991729963    7.35459507752186
H           1.20007815704971    6.11133562482874    1.68960171963361
H           0.28046758924462    7.60266397785630    1.46080853960640
H          -0.30062933294592    6.36554307800033    2.58041374238165
H          -7.56130834114838   -2.11235169358912   -3.33362225600222
H           9.59034588590706   -4.59994487789509    4.53373389247720
H           8.58630767392267   -0.29056955288003    3.93355429868854
H           7.28711821021124   -1.02199624063925    2.96786613999342
H           7.40620291981724   -0.81898158768966    6.02727113132530
H           6.32002880664544    0.09179680423979    4.96590438383100
H           6.12565330966205   -1.65497870490150    5.14512245163685
H           9.21044805751973   -7.33971053407195    4.42938863787249
H           7.26495682714872  -12.26584768108425    3.51135382256220
H           5.35003310940272   -9.41509253159621   -0.09401349145765
H          -5.82675381204980   -3.77003743419001   -4.01216147569579
H          -5.71873272491504   -2.28515335508575   -4.99600403269571
H          -3.38715144507593   -4.16603722646499   -4.35926536812948
H          -4.23487377967493   -4.06955751105022   -5.91234803099737
H          -3.27849628041089   -2.69709944101746   -5.32888757515640
H          -9.55949204173553   -1.36942353098219   -2.28054780191555
H          -9.90071139167987    1.70486482911749    3.20550702921594
H         -13.95039586074889    0.25587842259196    0.70401731454629
