# ORCA input file
# SCF done       -356.949126546687          0.000928217025
! wb97x-d3 def2-SVP def2/J RIJCOSX Grid4 TightSCF
%maxcore 5000
%tddft
    Mode sTDA
    Ethresh 5.0
    maxcore 5000
end

%pal
  nprocs 6
  end
* xyz 0 1
   C       -2.90357        -0.64942        -3.48469
   C       -3.07380        -0.00005        -2.26017
   C       -3.63585         0.02979        -4.47814
   C       -4.29327         1.12385        -3.87923
   C       -3.96572         1.20898        -2.40478
   C       -3.26498         2.53015        -2.14722
   C       -5.15391         1.02029        -1.47931
   C       -4.02692         3.68643        -2.03307
   C       -3.41674         4.91047        -1.84313
   C       -2.03296         5.01337        -1.76714
   C       -1.27799         3.85496        -1.88430
   C       -1.88362         2.62636        -2.07837
   C       -6.34424         0.46237        -1.92057
   C       -7.38517         0.24859        -1.03463
   C       -7.25756         0.56904         0.30973
   C       -6.05938         1.12091         0.74610
   C       -5.01960         1.34432        -0.13469
   C       -1.37559         6.33937        -1.51554
   C       -1.25467         6.59874        -0.01246
   C       -8.39979         0.36971         1.26347
   C       -9.23049         1.64944         1.37807
   S       -3.96315        -0.13321        -6.14675
   C       -5.00352         1.28920        -6.07672
   C       -5.04530         1.83382        -4.77849
   C       -5.74097         1.83702        -7.12469
   C       -5.87538         1.43430        -8.43696
   C       -5.21498         0.28128        -9.04480
   C       -5.68797         0.23197       -10.44534
   C       -6.57509         1.29709       -10.67185
   C       -6.70756         2.06975        -9.43358
   O       -4.43202        -0.49592        -8.52758
   C       -7.49325         3.18558        -9.28695
   C       -7.63886         3.94518        -8.10799
   C       -8.28236         3.73757       -10.31753
   N       -7.82192         4.61571        -7.19288
   N       -8.94122         4.24165       -11.11132
   C       -5.36322        -0.67931       -11.42938
   C       -5.94799        -0.51419       -12.67499
   C       -6.83000         0.53931       -12.91070
   C       -7.15496         1.45532       -11.92022
   F       -5.66388        -1.37572       -13.66078
   F       -7.38164         0.67483       -14.12298
   C        0.31701       -11.52025        11.91842
   C       -0.08226       -11.37324        13.23032
   C       -0.51949       -10.12505        13.85153
   C       -0.85766       -10.46296        15.25124
   C       -0.63426       -11.83339        15.46324
   C       -0.14727       -12.42874        14.21579
   O       -0.59789        -9.02001        13.34416
   C        0.17071       -13.75388        14.05198
   C        0.63218       -14.35242        12.86161
   C        0.07466       -14.72202        15.07324
   N        1.01323       -14.92139        11.93874
   N        0.01568       -15.56005        15.85564
   C       -1.32450        -9.62935        16.24691
   C       -1.57354       -10.19068        17.48937
   C       -1.35518       -11.54961        17.71075
   C       -0.88532       -12.38653        16.70849
   F       -1.60447       -12.06606        18.92043
   F       -2.02885        -9.42014        18.48618
   C        1.00476        -3.76363        -1.00905
   C       -1.20989        -4.94860        -1.10895
   C        1.62243        -2.54931        -1.27127
   C        2.92515        -2.50996        -1.73339
   C        3.64621        -3.67801        -1.93810
   C        3.02789        -4.89058        -1.66096
   C        1.72535        -4.93548        -1.20269
   C       -1.10722        -5.15228        -2.47996
   C       -1.86174        -6.12728        -3.10259
   C       -2.74094        -6.92020        -2.37591
   C       -2.84830        -6.70356        -1.00905
   C       -2.09984        -5.72445        -0.38075
   C        5.07436        -3.62847        -2.39849
   C        6.01869        -3.52133        -1.19936
   C       -3.51821        -8.01666        -3.04499
   C       -2.71674        -9.32005        -3.03440
   C        2.50027       -10.06637         6.96531
   C        0.11683       -10.46154         6.28787
   C        3.48958        -9.09757         6.89763
   C        4.80881        -9.46056         6.69221
   C        5.17066       -10.79330         6.55645
   C        4.17520       -11.75978         6.63651
   C        2.85667       -11.40348         6.83870
   C        0.45692       -10.57461         4.94543
   C       -0.40241       -11.18857         4.05538
   C       -1.62183       -11.70158         4.47965
   C       -1.95600       -11.58348         5.82177
   C       -1.10254       -10.96409         6.71704
   C        6.60837       -11.18808         6.38086
   C        7.25936       -11.44835         7.74088
   C       -2.53254       -12.40888         3.51825
   C       -2.18493       -13.89736         3.45104
   C        0.58835        -2.83995         5.99670
   C       -1.84269        -3.45275         5.83437
   C        1.59273        -2.19934         5.28672
   C        2.54723        -1.44968         5.95124
   C        2.53073        -1.33220         7.33401
   C        1.52619        -1.98335         8.03967
   C        0.56855        -2.72992         7.38216
   C       -2.76686        -4.47804         5.97468
   C       -4.05080        -4.20940         6.41215
   C       -4.44866        -2.91233         6.70503
   C       -3.52344        -1.88792         6.55019
   C       -2.23768        -2.15162         6.11931
   C        3.54336        -0.48367         8.04731
   C        3.03235         0.95149         8.18950
   C       -5.82803        -2.62781         7.22486
   C       -5.84241        -2.68070         8.75393
   S       -1.93098        -2.08204        -3.39398
   C       -1.77127        -1.84102        -1.68334
   C       -2.44056        -0.68263        -1.23000
   C       -1.17448        -2.54495        -0.64106
   C       -1.40108        -1.94167         0.58428
   S       -2.31806        -0.47568         0.49145
   C       -0.41248        -3.83072        -0.46566
   C       -0.32638        -3.90509         1.05011
   C       -0.88457        -2.74874         1.64468
   C        0.17451        -4.92495         1.82434
   C        0.08394        -4.77749         3.20583
   C       -0.44020        -3.60515         3.80016
   C       -0.92807        -2.57910         3.02619
   C        0.36566        -5.69295         4.26643
   C        0.01579        -5.14457         5.48860
   C       -0.44541        -3.72184         5.31532
   S        0.91186        -7.33362         4.35739
   C        0.64226        -7.30850         6.07406
   C        0.17676        -6.05521         6.52928
   C        0.72837        -8.24480         7.09584
   C        0.31647        -7.70932         8.31794
   S       -0.14776        -6.04090         8.23415
   C        1.04865        -9.71394         7.22597
   C        0.75461        -9.92187         8.69510
   C        0.34063        -8.71794         9.30114
   C        0.79246       -10.96473         9.58340
   C        0.39041       -10.59271        10.88093
   S       -0.01657        -8.87869        10.96416
   H       -5.10399         3.62244        -2.08545
   H       -4.02303         5.80068        -1.75728
   H       -0.20019         3.91283        -1.82949
   H       -1.27295         1.74067        -2.17637
   H       -6.46364         0.19345        -2.95985
   H       -8.30862        -0.18134        -1.39552
   H       -5.93666         1.37407         1.78932
   H       -4.09595         1.77756         0.22103
   H       -0.38022         6.35084        -1.96397
   H       -1.96546         7.13682        -1.97153
   H       -0.65943         5.81992         0.45913
   H       -0.77896         7.55925         0.17080
   H       -2.23889         6.60416         0.45054
   H       -9.03788        -0.44379         0.91296
   H       -8.01421         0.10165         2.24939
   H       -9.63410         1.92619         0.40678
   H      -10.05726         1.50578         2.06971
   H       -8.61404         2.46997         1.73835
   H       -5.63053         2.70694        -4.55088
   H       -6.30450         2.71426        -6.83114
   H       -4.68091        -1.49271       -11.24094
   H       -7.84232         2.25084       -12.15591
   H        0.61696       -12.51622        11.61620
   H       -1.49187        -8.57895        16.06995
   H       -0.73422       -13.42939        16.93309
   H        1.08529        -1.62455        -1.11862
   H        3.38651        -1.55503        -1.94146
   H        3.57149        -5.81251        -1.81087
   H        1.25809        -5.88990        -1.00863
   H       -0.42644        -4.54730        -3.06137
   H       -1.76896        -6.27117        -4.16930
   H       -3.53165        -7.30429        -0.42559
   H       -2.21073        -5.56710         0.68234
   H        5.31284        -4.53093        -2.96465
   H        5.22325        -2.76598        -3.05119
   H        5.89403        -4.37898        -0.54203
   H        7.05345        -3.48518        -1.53177
   H        5.80490        -2.62018        -0.62882
   H       -4.46477        -8.17196        -2.52339
   H       -3.73762        -7.73781        -4.07733
   H       -2.49747        -9.62065        -2.01216
   H       -3.27763       -10.11610        -3.51833
   H       -1.77454        -9.18848        -3.56176
   H        3.23454        -8.05301         7.00279
   H        5.56742        -8.69294         6.63534
   H        4.43612       -12.80351         6.53651
   H        2.09294       -12.16589         6.88789
   H        1.40213       -10.18297         4.59835
   H       -0.12341       -11.26597         3.01438
   H       -2.90002       -11.97505         6.17304
   H       -1.38999       -10.87486         7.75442
   H        6.67204       -12.09303         5.77333
   H        7.15176       -10.39216         5.86779
   H        6.73819       -12.24746         8.26312
   H        8.30048       -11.73610         7.61554
   H        7.21754       -10.55332         8.35765
   H       -3.57015       -12.29588         3.83863
   H       -2.43153       -11.97069         2.52321
   H       -2.29175       -14.35528         4.43175
   H       -2.84325       -14.41076         2.75423
   H       -1.15704       -14.03117         3.12146
   H        1.63284        -2.28258         4.21038
   H        3.32107        -0.95325         5.38297
   H        1.49621        -1.90944         9.11718
   H       -0.20617        -3.22883         7.94655
   H       -2.48581        -5.49508         5.74164
   H       -4.75514        -5.02150         6.52314
   H       -3.81361        -0.87003         6.76886
   H       -1.53005        -1.34181         6.01364
   H        3.73811        -0.89560         9.03944
   H        4.48153        -0.47774         7.48878
   H        2.10343         0.96760         8.75515
   H        3.76481         1.56691         8.70647
   H        2.84373         1.38454         7.20962
   H       -6.15061        -1.63770         6.89620
   H       -6.53162        -3.36465         6.83227
   H       -5.15651        -1.94299         9.16434
   H       -6.84096        -2.47574         9.13267
   H       -5.53357        -3.66409         9.10103
   H        0.58478        -5.82416         1.39185
   H       -1.35742        -1.68985         3.46117
   H        1.07825       -11.97454         9.34853
*
