# ORCA input file
# SCF done       -220.954214100607          0.000262516951
! wb97x-d3 def2-SVP def2/J RIJCOSX Grid4 TightSCF
%maxcore 5000
%tddft
    Mode sTDA
    Ethresh 5.0
    maxcore 5000
end

%pal
  nprocs 6
  end
* xyz 0 1
   C       -0.05435         0.51212         1.76777
   C        0.12299         1.08072         3.06545
   C       -0.74529         2.11508         3.49667
   C       -0.55274         2.82056         4.72238
   C        0.50247         2.53950         5.61562
   C        1.29842         1.46286         5.20486
   C        1.13558         0.74663         3.98782
   S        2.63398         0.85107         6.13326
   C        2.93953        -0.36261         4.94158
   C        2.10057        -0.30391         3.88999
   C        0.76716         3.25759         6.80881
   C        0.19171         4.38552         7.29935
   C        0.68395         4.96307         8.55154
   N        0.02424         6.14944         8.84568
   C       -0.91029         6.53309         7.94369
   S       -1.08201         5.37591         6.63295
   C       -1.70836         7.65199         7.95198
   C        0.41146         6.89962        10.02583
   C        1.41384         7.99658         9.68716
   O        1.54784         4.49539         9.26009
   C       -2.61251         7.82867         6.88573
   C       -1.72650         8.67198         8.91582
   N       -1.78678         9.53884         9.66799
   N       -3.34026         7.96571         6.00826
   N       -1.83090         2.65212         2.91038
   N       -2.23308         3.57779         3.73021
   N       -1.52829         3.72817         4.81525
   S        1.20248        -0.37941         0.92047
   C        0.21582        -0.48759        -0.47581
   C       -1.02663         0.10078        -0.29074
   C       -1.17459         0.67372         0.96506
   C        0.36672        -0.95415        -1.81751
   C       -0.83278        -0.63136        -2.49519
   C       -1.84062         0.00117        -1.55101
   C        1.43840        -1.56584        -2.46439
   C        1.29986        -1.82980        -3.80696
   C        0.10945        -1.48346        -4.48772
   C       -0.97227        -0.89632        -3.83658
   C        2.31709        -2.43526        -4.76142
   C        1.55086        -2.40426        -6.05637
   C        0.29989        -1.84032        -5.85659
   C        1.77056        -2.77313        -7.37802
   C        0.69760        -2.47579        -8.20440
   S       -0.61892        -1.74725        -7.29846
   C       -3.02028        -0.98411        -1.39142
   C       -2.31210         1.37831        -2.04084
   C        3.55022        -1.50597        -4.80196
   C        2.69861        -3.86752        -4.35475
   C        0.68126        -2.60606        -9.62703
   C        1.90283        -2.74549       -10.32881
   C        1.97043        -2.72409       -11.75359
   C        0.83484        -2.53700       -12.57517
   C       -0.36910        -2.52079       -11.86702
   C       -0.46245        -2.56568       -10.44547
   S       -1.94521        -2.57042       -12.59933
   C       -2.70337        -2.63501       -11.04769
   C       -1.82774        -2.61732       -10.02597
   C        1.04327        -2.39868       -13.97780
   C        0.34524        -1.69878       -14.90460
   C        0.77106        -1.67579       -16.30318
   N       -0.01583        -0.80080       -17.04438
   C       -0.98665        -0.14947       -16.35666
   S       -1.00918        -0.61692       -14.66660
   C       -1.88229         0.78413       -16.81360
   C        0.21342        -0.68912       -18.47305
   C       -0.76266        -1.55008       -19.26576
   O        1.68273        -2.31043       -16.78278
   C       -2.81319         1.34357       -15.91332
   C       -1.98743         1.27733       -18.12485
   N       -2.13070         1.72070       -19.17502
   N       -3.57555         1.80368       -15.19001
   N        3.16359        -2.87722        -9.88182
   N        3.89007        -2.93246       -10.96154
   N        3.26052        -2.84001       -12.09818
   C       -3.37682         4.39993         3.45255
   C       -2.95390         5.83899         3.18245
   C        5.31867        -3.05602       -10.89909
   C        5.94684        -1.74372       -10.44142
   C       -4.03174        -0.60368        -0.31838
   C       -1.15367         2.33551        -2.29652
   C        4.58570        -1.84946        -5.86508
   C        1.48372        -4.77585        -4.20425
   H        3.73853        -1.05794         5.10837
   H        2.14622        -1.00328         3.07743
   H        1.57105         2.86884         7.42661
   H       -0.48104         7.31899        10.49337
   H        0.87162         6.17453        10.70276
   H        0.98258         8.72174         9.00094
   H        1.69914         8.51589        10.59704
   H        2.30408         7.56397         9.23616
   H       -2.03674         1.21304         1.30745
   H        2.33857        -1.80895        -1.92019
   H       -1.87043        -0.64882        -4.38183
   H        2.65426        -3.24702        -7.75997
   H       -3.52644        -1.06382        -2.35573
   H       -2.60626        -1.96763        -1.15344
   H       -2.88610         1.24648        -2.96010
   H       -2.97033         1.81320        -1.28806
   H        3.19600        -0.48586        -4.97234
   H        4.02231        -1.53073        -3.81758
   H        3.36122        -4.28470        -5.11398
   H        3.24405        -3.82973        -3.40960
   H       -3.77309        -2.68848       -11.00138
   H       -2.13489        -2.68167        -8.99954
   H        1.95211        -2.86005       -14.35005
   H        0.14015         0.35830       -18.77040
   H        1.23548        -1.04256       -18.63595
   H       -1.78863        -1.22527       -19.10920
   H       -0.53669        -1.46595       -20.32444
   H       -0.66974        -2.59240       -18.96900
   H       -3.87506         3.96264         2.58563
   H       -4.03937         4.36829         4.32090
   H       -2.26847         5.88474         2.33949
   H       -3.82952         6.43975         2.95768
   H       -2.47102         6.25777         4.06126
   H        5.56164        -3.85535       -10.19457
   H        5.65726        -3.32466       -11.90065
   H        5.56696        -1.47100        -9.45986
   H        7.02587        -1.85219       -10.38345
   H        5.71247        -0.94716       -11.14330
   H       -4.49917         0.35272        -0.53589
   H       -4.81365        -1.35865        -0.27467
   H       -3.55748        -0.54915         0.65774
   H       -0.47861         1.93351        -3.04891
   H       -1.53076         3.29276        -2.64856
   H       -0.58809         2.50508        -1.38298
   H        4.15634        -1.77634        -6.86027
   H        5.41527        -1.14852        -5.79915
   H        4.98011        -2.85221        -5.72452
   H        0.93602        -4.84257        -5.14166
   H        1.79839        -5.77710        -3.91947
   H        0.80952        -4.39594        -3.43977
*
