132
 SCF done       -220.954214100607          0.000262516951
C          -0.05434666628366    0.51212480592381    1.76776643666730
C           0.12298903534119    1.08072334913642    3.06545464034282
C          -0.74529417146137    2.11508327964752    3.49666513059026
C          -0.55273985709466    2.82055728795750    4.72237785132664
C           0.50246783998806    2.53950494702050    5.61561867978472
C           1.29842140086052    1.46286190001664    5.20485829103814
C           1.13558377889645    0.74663432871773    3.98781818138572
S           2.63398159496200    0.85106559010484    6.13326257670850
C           2.93953343039836   -0.36260654963544    4.94157955246795
C           2.10057175790708   -0.30391163646012    3.88999468764936
C           0.76715622653250    3.25758787582927    6.80880640089271
C           0.19170831338902    4.38551779742782    7.29935151307509
C           0.68395008927261    4.96307422032159    8.55153654915052
N           0.02424058785806    6.14943974898924    8.84568468013664
C          -0.91028626443551    6.53308967095743    7.94369007053561
S          -1.08200818794780    5.37591373971288    6.63294792565556
C          -1.70836107431652    7.65198661993710    7.95197686782652
C           0.41146307358269    6.89962133864813   10.02582682578548
C           1.41384365393427    7.99658429222643    9.68716477150233
O           1.54783774040973    4.49538706254662    9.26008819767955
C          -2.61250623063016    7.82867206805865    6.88573366030401
C          -1.72650273914153    8.67198257767939    8.91582013827746
N          -1.78678086581170    9.53884155695989    9.66798866836739
N          -3.34025721913992    7.96571105979034    6.00826363535238
N          -1.83089527078942    2.65211620044989    2.91037788728960
N          -2.23308364402168    3.57779316892047    3.73020732227899
N          -1.52828694969158    3.72817172273171    4.81524643704241
S           1.20248242057755   -0.37941065823929    0.92046561123873
C           0.21582104382603   -0.48758918309938   -0.47581492402348
C          -1.02663200993500    0.10077941827475   -0.29074411503002
C          -1.17458514602759    0.67372015442252    0.96506363276030
C           0.36671549306449   -0.95415290340625   -1.81751070629326
C          -0.83278124976096   -0.63136206330510   -2.49518980279106
C          -1.84062169804502    0.00116695050323   -1.55100995945719
C           1.43839806255226   -1.56584120245718   -2.46439322627838
C           1.29986331102084   -1.82979593060431   -3.80695662077951
C           0.10945025162676   -1.48345514365698   -4.48771557494430
C          -0.97226695541284   -0.89632220914798   -3.83658497662912
C           2.31708718438986   -2.43525646760978   -4.76141726579772
C           1.55085835500300   -2.40426459653176   -6.05637219815308
C           0.29989201693680   -1.84032435909490   -5.85658661395744
C           1.77056176461296   -2.77313243002741   -7.37802034903190
C           0.69760158917518   -2.47579019230181   -8.20439874224926
S          -0.61892280861684   -1.74724865314344   -7.29845657621275
C          -3.02028211003730   -0.98410888112596   -1.39141546885232
C          -2.31209940301352    1.37830974374608   -2.04083736033468
C           3.55021576461342   -1.50596917233667   -4.80195947203028
C           2.69861210792053   -3.86751629415913   -4.35474576476547
C           0.68125781443924   -2.60605574179767   -9.62703401164951
C           1.90283235370253   -2.74549117620527  -10.32881420706153
C           1.97043010108238   -2.72408968523753  -11.75359322231360
C           0.83484048016848   -2.53700389523249  -12.57516725902516
C          -0.36910150816971   -2.52078707429133  -11.86701565981172
C          -0.46244996592753   -2.56567806231484  -10.44546894182588
S          -1.94520970955683   -2.57041751630473  -12.59933273388387
C          -2.70337017815268   -2.63501311383798  -11.04768875898890
C          -1.82773567103610   -2.61732138580666  -10.02596577234991
C           1.04327067955553   -2.39867896373856  -13.97779795078620
C           0.34523972942746   -1.69878483548302  -14.90459991650332
C           0.77105784982104   -1.67579127390946  -16.30318491731420
N          -0.01583383469288   -0.80079605597681  -17.04437843055634
C          -0.98665163619526   -0.14947085820170  -16.35665797440996
S          -1.00918482209847   -0.61691537812741  -14.66660383562997
C          -1.88229357465847    0.78413248328489  -16.81360213735601
C           0.21342310113813   -0.68912484242516  -18.47304829104337
C          -0.76266371711238   -1.55007633042222  -19.26576395910505
O           1.68273370925473   -2.31042725811446  -16.78277731580249
C          -2.81318696918433    1.34357328955764  -15.91331903993539
C          -1.98742753587056    1.27732609439699  -18.12485022826852
N          -2.13070314765224    1.72070420138970  -19.17501928237676
N          -3.57555126988487    1.80367588805958  -15.19000833724689
N           3.16359317742625   -2.87721786414133   -9.88182239629097
N           3.89007388930992   -2.93245604062738  -10.96154467232915
N           3.26051613946219   -2.84001380144852  -12.09818440930110
C          -3.37682394769244    4.39993256003995    3.45254519882309
C          -2.95390423815115    5.83898575930391    3.18244848935222
C           5.31867236564316   -3.05601689545605  -10.89909125669765
C           5.94683581534491   -1.74372346959678  -10.44142432811523
C          -4.03173783951746   -0.60367767110299   -0.31837945730008
C          -1.15367204543722    2.33550560781634   -2.29652495378571
C           4.58570165100974   -1.84946319762649   -5.86507776327516
C           1.48371792678729   -4.77585166406505   -4.20425130334688
H           3.73852800801161   -1.05794208227626    5.10836883631587
H           2.14622448043325   -1.00328254074564    3.07743249935965
H           1.57104669143779    2.86884068337796    7.42661116630729
H          -0.48104472101708    7.31899275692521   10.49336928849654
H           0.87162193804493    6.17452657339295   10.70276154505237
H           0.98257780047758    8.72173757391839    9.00093670062800
H           1.69914015402007    8.51588847468325   10.59704432026253
H           2.30408400938566    7.56397211031641    9.23615733698842
H          -2.03673510306551    1.21303569241624    1.30744668808004
H           2.33857089688526   -1.80895067638717   -1.92019360210235
H          -1.87042735081482   -0.64882120670096   -4.38182966574792
H           2.65425860773500   -3.24702195339665   -7.75997315157277
H          -3.52644062333664   -1.06381535569672   -2.35572674459991
H          -2.60625506339195   -1.96762829393171   -1.15344221948691
H          -2.88610248991083    1.24647859385670   -2.96009768095018
H          -2.97033398411712    1.81320241962910   -1.28805872951890
H           3.19600128586963   -0.48585657058739   -4.97234084875568
H           4.02230862791740   -1.53073226085328   -3.81757884356752
H           3.36122441988111   -4.28470107897925   -5.11398358556177
H           3.24405180541696   -3.82972732675447   -3.40960332697696
H          -3.77309453942534   -2.68847696029453  -11.00138050913469
H          -2.13489082978577   -2.68166640326524   -8.99954453857265
H           1.95210970720140   -2.86005127635719  -14.35004971578209
H           0.14015103457140    0.35829963827276  -18.77040020553892
H           1.23548082804018   -1.04255625787814  -18.63594636153293
H          -1.78862893425367   -1.22527020157456  -19.10920367655856
H          -0.53668628341250   -1.46594868741753  -20.32443815693379
H          -0.66974339710829   -2.59240446706203  -18.96900121081127
H          -3.87506385354870    3.96263568500842    2.58563144546131
H          -4.03936544495718    4.36828887030562    4.32089930538214
H          -2.26846749829571    5.88474475199484    2.33948963036567
H          -3.82951535452032    6.43974711053541    2.95767613440086
H          -2.47101679583958    6.25777177071571    4.06125825305667
H           5.56164064859230   -3.85535479358733  -10.19457179252185
H           5.65726362784509   -3.32466180010234  -11.90065487129967
H           5.56696394856028   -1.47099851125073   -9.45986248010414
H           7.02587108137134   -1.85219467286079  -10.38345424297921
H           5.71247481955084   -0.94715682429571  -11.14329731487685
H          -4.49916963077649    0.35271684886857   -0.53588780110841
H          -4.81365016732479   -1.35864777431158   -0.27467358330830
H          -3.55747540663699   -0.54914609232803    0.65773535228884
H          -0.47861276071660    1.93350917938527   -3.04891070884792
H          -1.53075554108602    3.29275955908699   -2.64855553674204
H          -0.58809455339759    2.50508244850563   -1.38298255156100
H           4.15634499403583   -1.77633913149252   -6.86027460560387
H           5.41527209528812   -1.14851998402493   -5.79915117761360
H           4.98010868748275   -2.85220847414910   -5.72451919615293
H           0.93601847109591   -4.84257037376168   -5.14166121655581
H           1.79838591111933   -5.77710370758255   -3.91947398368800
H           0.80952320779635   -4.39594076648498   -3.43977273535656
