# ORCA input file
# SCF done       -286.496787989678          0.000937244946
! wb97x-d3 def2-SVP def2/J RIJCOSX Grid4 TightSCF
%maxcore 5000
%tddft
    Mode sTDA
    Ethresh 5.0
    maxcore 5000
end

%pal
  nprocs 6
  end
* xyz 0 1
   C        0.01218         0.52597         1.91336
   C       -0.33023         1.56226         2.75294
   C        0.11214         1.64101         4.13314
   C       -0.21392         2.97778         4.63095
   C       -0.91623         3.66562         3.63013
   C       -1.05474         2.80462         2.43347
   O       -1.65066         3.11661         1.42083
   C        0.68163         0.64733         4.88702
   C        1.08819         0.81138         6.22844
   N        1.44306         0.87658         7.31816
   C        0.91508        -0.68269         4.47568
   N        1.12583        -1.78780         4.24365
   C        0.04866         3.60096         5.84091
   C       -0.40378         4.90064         6.01536
   C       -1.10692         5.57328         5.01631
   C       -1.37215         4.95700         3.80438
   C        3.08945        -1.18583       -17.87528
   C        2.84269        -0.24803       -18.85317
   C        3.54438        -0.14193       -20.11371
   C        3.00925         1.02750       -20.81565
   C        2.00332         1.60683       -20.02494
   C        1.85317         0.82723       -18.77703
   C        3.33409         1.59293       -22.03836
   C        2.64126         2.72736       -22.43641
   C        1.64405         3.29410       -21.64355
   C        1.31209         2.73402       -20.42016
   O        1.05724         1.05423       -17.88455
   C        4.53291        -0.96157       -20.59754
   C        5.16794        -0.78400       -21.84474
   C        5.06198        -2.09319       -19.94347
   N        5.54451        -3.03013       -19.48534
   N        5.73215        -0.69773       -22.84079
   C       -0.28065         0.28341         0.56678
   S        0.57380        -1.09278        -0.16957
   C       -0.15638        -0.75278        -1.68247
   C       -1.04327         0.35690        -1.60050
   C       -1.11244         0.92972        -0.34259
   C       -0.16852        -1.16550        -3.00774
   C       -1.06339        -0.30518        -3.70656
   N       -1.58366         0.61143        -2.83493
   S        0.59704        -2.34094        -4.02606
   C       -0.26684        -1.67545        -5.36979
   C       -1.11452        -0.61915        -5.06954
   C       -0.23136        -1.92150        -6.77617
   C       -1.10013        -0.98632        -7.37924
   C       -1.84092        -0.17587        -6.32049
   C        0.56292        -2.78673        -7.52440
   C        0.51600        -2.65792        -8.89195
   C       -0.28618        -1.65933        -9.48975
   C       -1.12944        -0.83915        -8.74515
   C        1.33774        -3.39430        -9.94675
   C        1.05090        -2.54413       -11.16372
   C        0.06687        -1.61079       -10.87298
   C        1.49381        -2.41210       -12.48188
   C        0.81641        -1.36522       -13.16387
   S       -0.36252        -0.55999       -12.17913
   N        2.39699        -2.99949       -13.32818
   C        2.34065        -2.31399       -14.51778
   C        1.34856        -1.29534       -14.44690
   C        2.98739        -2.35085       -15.73447
   C        2.52388        -1.35730       -16.61015
   S        1.23235        -0.38295       -15.89827
   C       -3.28574        -0.65804        -6.33114
   C       -1.68914         1.31274        -6.56554
   C        2.81517        -3.34727        -9.59343
   C        0.78915        -4.80576       -10.10298
   C       -2.74581         2.20777        -6.43212
   C       -2.53539         3.55408        -6.66735
   C       -1.29096         4.03481        -7.03456
   C       -0.22416         3.14964        -7.15902
   C       -0.43816         1.79332        -6.91281
   C       -3.76803        -1.46924        -5.31196
   C       -5.07540        -1.94376        -5.33640
   C       -5.90431        -1.59738        -6.40382
   C       -5.41959        -0.80330        -7.42146
   C       -4.11623        -0.33605        -7.39563
   C        3.60986        -4.48527        -9.57265
   C        4.96010        -4.39612        -9.24946
   C        5.51240        -3.14714        -8.96091
   C        4.72193        -2.01760        -8.99327
   C        3.37677        -2.10976        -9.30796
   C        0.84544        -5.69640        -9.03885
   C        0.35968        -6.98491        -9.18601
   C       -0.18887        -7.39858       -10.38119
   C       -0.26781        -6.51038       -11.45439
   C        0.22520        -5.21846       -11.30380
   F       -1.52678         6.82746         5.22904
   F        1.00226         4.39058       -22.06713
   C       -2.52525         1.66958        -3.10559
   C       -3.96922         1.20994        -2.91907
   C        3.38874        -3.98923       -12.99076
   C        4.73361        -3.34613       -12.66226
   O        1.05083         3.48043        -7.48897
   C        1.35545         4.79971        -7.89922
   O       -5.64210        -2.71734        -4.37375
   C       -4.86419        -3.18844        -3.29077
   O        5.81880        -5.44588        -9.17621
   C        5.35904        -6.76577        -9.39092
   O       -0.84612        -7.00042       -12.58175
   C       -0.99437        -6.17983       -13.72359
   F       -0.15469         5.52258         7.17407
   F        2.94291         3.28967       -23.61289
   C        0.88945         5.09353        -9.32199
   C       -3.94392        -4.34297        -3.67657
   C        5.24671        -7.12490       -10.87005
   C        0.29313        -6.04784       -14.53285
   H        0.66314        -0.22616         2.34349
   H        0.58873         3.12808         6.64428
   H       -1.91398         5.47222         3.02740
   H        3.86699        -1.90856       -18.09059
   H        4.09603         1.19647       -22.68888
   H        0.54233         3.16825       -19.80242
   H       -1.71066         1.77742        -0.06627
   H        1.22923        -3.47397        -7.02742
   H       -1.72359        -0.08305        -9.23323
   H        3.77005        -3.03390       -16.01223
   H       -3.72947         1.85902        -6.15790
   H       -3.35851         4.24586        -6.56652
   H       -1.17013         5.09096        -7.21395
   H        0.40219         1.12322        -7.01056
   H       -3.11391        -1.73357        -4.49764
   H       -6.91713        -1.96634        -6.41043
   H       -6.06295        -0.54433        -8.24873
   H       -3.75334         0.28550        -8.19824
   H        3.16561        -5.44119        -9.79891
   H        6.55976        -3.09378        -8.71168
   H        5.15495        -1.05468        -8.76849
   H        2.76108        -1.22283        -9.32885
   H        1.27654        -5.39304        -8.09892
   H        0.41132        -7.67279        -8.35540
   H       -0.57138        -8.39814       -10.50975
   H        0.16193        -4.52108       -12.12216
   H       -2.36911         2.01912        -4.12830
   H       -2.30548         2.48887        -2.41627
   H       -4.12023         0.83231        -1.91015
   H       -4.64209         2.04734        -3.07942
   H       -4.21711         0.42623        -3.63164
   H        3.01981        -4.55150       -12.13048
   H        3.49803        -4.66896       -13.84212
   H        4.62917        -2.66174       -11.82411
   H        5.45669        -4.11080       -12.39448
   H        5.10889        -2.79472       -13.52087
   H        0.94406         5.53086        -7.19269
   H        2.44651         4.85094        -7.84798
   H       -4.29341        -2.36819        -2.83625
   H       -5.60253        -3.53326        -2.56166
   H        6.11954        -7.39516        -8.92001
   H        4.40547        -6.93363        -8.87564
   H       -1.75408        -6.68820       -14.32374
   H       -1.38252        -5.19264       -13.44332
   H       -0.19333         5.03001        -9.39937
   H        1.20595         6.09156        -9.61184
   H        1.32471         4.37145       -10.00829
   H       -3.21972        -4.03623        -4.42770
   H       -3.41185        -4.69412        -2.79667
   H       -4.53230        -5.16103        -4.08407
   H        6.19917        -6.94896       -11.36385
   H        4.98778        -8.17531       -10.96919
   H        4.48463        -6.52855       -11.36561
   H        0.63920        -7.03224       -14.83754
   H        0.10694        -5.44801       -15.41963
   H        1.07603        -5.57435       -13.94625
*
