# ORCA input file
# SCF done       -209.995540261193          0.000536516914
! wb97x-d3 def2-SVP def2/J RIJCOSX Grid4 TightSCF
%maxcore 5000
%tddft
    Mode sTDA
    Ethresh 5.0
    maxcore 5000
end

%pal
  nprocs 6
  end
* xyz 0 1
   C       -6.60766         3.33459        -2.53123
   O       -6.30307         3.11394        -1.37344
   C       -7.50563         2.51166        -3.36826
   C       -8.17446         1.35343        -3.02656
   C       -8.96649         0.75995        -3.99647
   C       -9.07445         1.32362        -5.26797
   C       -8.40165         2.48777        -5.60992
   C       -7.60747         3.08788        -4.64557
   C       -6.78480         4.29900        -4.68386
   C       -6.64258         5.11791        -5.77389
   C       -5.85535         6.28729        -5.83213
   N       -5.24126         7.24879        -5.96624
   C       -7.27601         4.89942        -7.01628
   N       -7.75775         4.78316        -8.05123
   C       -6.17428         4.44741        -3.37836
   C       -5.33462         5.46682        -2.99493
   C       -0.70580         6.06954        18.82996
   O       -0.35882         5.13827        18.13264
   C       -0.80435         6.03239        20.30585
   C       -0.56249         4.96272        21.14498
   C       -0.73356         5.16214        22.50486
   C       -1.13657         6.40513        22.99420
   C       -1.37516         7.47947        22.15027
   C       -1.20465         7.28776        20.78758
   C       -1.36786         8.19412        19.65065
   C       -1.67207         9.52599        19.75841
   C       -1.78312        10.45442        18.70040
   N       -1.88331        11.28711        17.91549
   C       -1.90284        10.18639        20.98524
   N       -2.10524        10.78765        21.94156
   C       -1.11314         7.43334        18.43809
   C       -1.30590         7.94226        17.17626
   C       -1.14225         7.38094        15.90186
   S       -1.63122         8.40830        14.54476
   C       -1.21795         7.17190        13.44859
   C       -0.71296         6.02650        14.08470
   C       -0.67153         6.14430        15.45799
   C       -1.24434         6.94144        12.05607
   C       -0.76648         5.65494        11.79394
   C       -0.39314         4.94854        13.07442
   S       -1.67603         7.79689        10.63923
   C       -1.23741         6.40956         9.66739
   C       -0.75865         5.36115        10.43592
   C       -1.44892         6.42654         8.24122
   C       -1.68204         5.25604         7.50262
   C       -1.94965         5.27671         6.14709
   C       -1.99031         6.46529         5.40211
   C       -1.73513         7.63381         6.13696
   C       -1.48527         7.61457         7.49577
   C       -2.31263         6.49246         3.99741
   S       -3.29422         5.22900         3.28950
   C       -3.26510         6.04546         1.78683
   C       -2.52054         7.22643         1.82246
   C       -1.97583         7.47151         3.07646
   C       -3.79006         5.85693         0.48979
   C       -3.36423         6.92811        -0.31797
   C       -2.49602         7.89035         0.46390
   S       -4.80812         4.74508        -0.31161
   C       -4.70329         5.71788        -1.77321
   C       -3.88961         6.84960        -1.58505
   C       -1.04068         7.90366        -0.04699
   C       -0.86002         8.46085        -1.45227
   C       -3.17161         9.27592         0.46930
   C       -2.44765        10.34642         1.27468
   C       -1.30877         3.73767        13.36382
   C       -1.23168         2.60846        12.34538
   C        1.09385         4.55818        13.10433
   C        2.02215         5.75937        12.96600
   F       -1.26437         8.78636         8.11003
   F       -2.16984         4.10470         5.53369
   F       -1.29997         6.56905        24.31160
   F       -0.51300         4.15378        23.35684
   F       -9.63414        -0.36410        -3.71097
   F       -9.84597         0.72986        -6.18504
   F       -1.76438         8.82830         5.52690
   F       -1.68545         4.06527         8.12075
   H       -8.08760         0.92193        -2.04218
   H       -8.52018         2.88097        -6.60605
   H       -5.11545         6.21776        -3.74422
   H       -0.25285         4.00433        20.75980
   H       -1.68593         8.41648        22.58152
   H       -1.67696         8.95957        17.13798
   H       -0.32473         5.39082        16.14048
   H       -0.39825         4.44332        10.01176
   H       -1.34238         8.30398         3.31659
   H       -3.73450         7.56143        -2.37619
   H       -0.43907         8.48160         0.65577
   H       -0.67310         6.87442        -0.02309
   H       -1.19463         9.49226        -1.51698
   H        0.19407         8.43101        -1.71854
   H       -1.40759         7.86700        -2.17851
   H       -3.27321         9.60538        -0.56558
   H       -4.17987         9.14971         0.87196
   H       -1.44162        10.51341         0.90020
   H       -2.99461        11.28331         1.19804
   H       -2.39301        10.07577         2.32499
   H       -1.04404         3.35515        14.35139
   H       -2.33905         4.09886        13.41353
   H       -0.22558         2.20502        12.27457
   H       -1.89452         1.80363        12.65424
   H       -1.54814         2.94516        11.36238
   H        1.29672         4.04859        14.04770
   H        1.28952         3.86185        12.28857
   H        1.88237         6.45544        13.78972
   H        3.05796         5.42937        12.97086
   H        1.83597         6.28770        12.03341
*
