154
 SCF done       -259.001197871636          0.000916806257
C          -0.86183879528439    2.11648449009207   -0.67002368456883
C          -0.43568185932504    3.36698203513634   -1.18429447686718
C          -5.00734505559820   -0.40824470246913    5.30877434176678
C          -2.64196051426015    0.25862650952703    5.84530258661904
C          -3.76495064728110   -1.82779191985367   -0.99953054448167
C          -2.11810067444505   -3.65425011462282   -0.47908606261425
C          -3.71069078658109   -1.68553798613014   -2.38089247313166
C          -4.84218962425832   -1.34874609841530   -3.09689247496632
C          -6.05771898409461   -1.14938805127317   -2.45406772170834
C          -6.10706469122150   -1.29952122397012   -1.07516490266171
C          -4.97562592235603   -1.63134221240999   -0.35129913497812
C          -3.08765591164981   -4.60458590201654   -0.76827285933160
C          -2.73873907318564   -5.93584020717599   -0.90254416653287
C          -1.42119873873331   -6.34848459929619   -0.75427876808317
C          -0.45657955474849   -5.39043005917594   -0.47024121181503
C          -0.79942621407071   -4.05970952336325   -0.32621954682280
C          -5.66056461771297   -0.35263315834478    6.53422334924980
C          -6.98859913064061    0.01874584796718    6.60602371586330
C          -7.69850181861678    0.34669659862499    5.45764016776003
C          -7.03895922647373    0.29530381753331    4.23741573546726
C          -5.70977731405111   -0.08016928622073    4.15830433027082
C          -3.01854413532267    1.59405539882386    5.81805748444648
C          -2.15851040666887    2.56908637748021    6.28979994657918
C          -0.90955798373820    2.23697382829494    6.79734294992474
C          -0.54018709360056    0.89805324027412    6.82006036884962
C          -1.39138338879666   -0.08028534906621    6.34402350866124
C          -9.12720533239860    0.80032631688221    5.53982726699630
C           0.00153931183059    3.29165432265985    7.35555070501358
C          -1.04071780584789   -7.78832896783345   -0.94430944567235
C          -7.29811262820216   -0.83598822322382   -3.23958818668156
S          -1.61050398218156    2.01653219835629    0.90379707081411
C          -1.84175911926664    0.31589409936034    0.71962902020797
C          -1.36558996806635   -0.13288725799224   -0.50163318980944
C          -0.80263850273512    0.88373346987004   -1.28381551280360
C          -2.36850040720702   -0.60014420096010    1.68012880332230
C          -2.62325955344309   -1.90461472644479    1.21746515946343
C          -2.47680747505183   -2.19463959548795   -0.26594302133145
O          -1.40562646205282   -1.43003900229747   -0.85776509081987
C          -2.60595700215194   -0.26750610134325    3.01513422677733
C          -3.11855132436581   -1.20308645639769    3.88663865328792
C          -3.35906101575394   -2.51087685303238    3.42709295733549
C          -3.09492130520882   -2.85115355398259    2.09932102211597
C          -3.54135576688757   -0.83545271760694    5.29779391154854
O          -3.40585398991721   -1.94628805856616    6.21059018871216
C          -3.83077960551375   -3.13490092137469    5.74485699865683
C          -3.84561972336185   -3.44160238706096    4.39383927712399
C          -4.23935481014977   -4.19888204835537    6.55898099901106
C          -4.58232510433659   -5.31990158151899    5.82989929525034
S          -4.38890783982962   -5.05498222126179    4.11773141838914
C          -9.19370700611215    2.31966012266266    5.70897072567892
C          -0.22209399493841    3.44603546147272    8.86131546935302
C          -7.98137331408894   -2.12832336357586   -3.69174105965636
C          -0.68592946718166   -8.05757948419549   -2.40808027514332
C          -5.05846179296005   -6.56642346258626    6.31527857875730
S           0.24408691239519    3.46898568793379   -2.79850601694868
C           0.42365581263533    5.18358832417035   -2.63524604448153
C          -0.02351858569409    5.61835973969868   -1.37451780296512
C          -0.50648905738209    4.59566023187463   -0.56012097051954
S          -5.41046413722691   -7.86849946201334    5.19524685009147
C          -5.89038163915064   -8.89439559372769    6.50280912780623
C          -5.77160417518241   -8.22623375351351    7.73479897011191
C          -5.30240198017787   -6.91793952832725    7.62896659971398
C           1.15086881833789    8.73565915749774   -3.27756564497411
C           1.60139842750058    9.21800507495764   -4.47817575942240
C           1.79127038229336    8.49305329782139   -5.75601640054284
C           2.10134522741014    9.52877812793273   -6.76044320455641
C           2.15175453233311   10.78992801033531   -6.14509777619979
C           1.89379349130328   10.62342313773739   -4.71588315823777
C           2.31747142492384    9.36945101589404   -8.11529090783975
C           2.58571074511151   10.50025321805466   -8.87306751701971
C           2.63122770955694   11.75140225035932   -8.27484549298407
C           2.41756372632649   11.91393041921071   -6.91230088171505
O           1.71318469614147    7.30147753792930   -5.97722749559878
C           1.97330673855432   11.62805438897027   -3.78705918976196
C           1.80784762935794   11.49880610575274   -2.39115944109360
C           2.27332276205320   12.97196549926775   -4.09825041113261
N           1.70813070928076   11.49607635585146   -1.24651698400274
N           2.50036832508734   14.08425646483789   -4.27020388152465
C          -7.10175277158661  -11.74680046184474    8.49002229164763
C          -7.40171536685741  -12.97159802677066    7.95407339474800
C          -7.17500025812054  -13.46123254047026    6.57427662478781
C          -7.46668755384297  -14.90749924299758    6.61162274705563
C          -7.89829305846953  -15.27427408407540    7.89651255147198
C          -7.92597643674883  -14.07945635581222    8.73792323908739
C          -7.35349995232103  -15.82992850345083    5.58983850131335
C          -7.67413101446127  -17.15192486818107    5.86271611064405
C          -8.09333007737774  -17.52505331559545    7.13174100275912
C          -8.21206165606433  -16.59887989115067    8.15976785123164
O          -6.81670426516292  -12.84267592610093    5.59257586347949
C          -8.42809339046201  -14.03247534939608   10.01216133539983
C          -8.55942922638045  -12.88134659325140   10.81853174959903
C          -8.93815261498135  -15.15295312855332   10.70273927495598
N          -8.72864025974672  -12.00159125727102   11.53784095639526
N          -9.35772190962715  -16.01772371603373   11.33064894441102
C           0.89144965293114    6.19364543009288   -3.46212147787480
C           0.81164682143873    7.43770037466110   -2.85372111506429
S           0.15101286946353    7.31934044377515   -1.21281270671172
C          -6.35762963406517  -10.19666179001666    6.59419993336554
C          -6.61010273768296  -10.56440214996702    7.90734094048086
S          -6.25734288930980   -9.24137724283566    9.03344534386131
H          -2.77005665846277   -1.84120302240919   -2.88826099395235
H          -4.78178752386570   -1.23976661491071   -4.17024162437852
H          -7.04331715006398   -1.15225152581752   -0.55568123600725
H          -5.04579873502503   -1.74355426320382    0.72074487679186
H          -4.11896393195437   -4.30537483279239   -0.88556632127147
H          -3.50458079614938   -6.66578631448745   -1.12234781445200
H           0.57460124215017   -5.69110308523415   -0.35131878666543
H          -0.04146836648466   -3.32540277488117   -0.09939115839165
H          -5.11476739377580   -0.60462639469344    7.43149576033175
H          -7.48145189087531    0.05545376422495    7.56695359658828
H          -7.57186158721597    0.54928301001719    3.33209447122419
H          -5.22349097884612   -0.10801616443067    3.19427156676774
H          -3.98551696077663    1.87450663774413    5.42661584150649
H          -2.46402294548936    3.60525539241397    6.26118014080667
H           0.42865600900416    0.61897130257052    7.20905599920454
H          -1.09134826865569   -1.11706267450881    6.36413183293193
H          -9.65941204323364    0.51598821217266    4.62988228242212
H          -9.61991038021540    0.32190979147269    6.38841755539798
H           1.04222874423232    3.01579978228962    7.17354146567533
H          -0.19060097001689    4.24677358219916    6.86312462145500
H          -0.18130575633031   -8.03008716143155   -0.31579085950224
H          -1.87157697351989   -8.43273300753892   -0.65066487241088
H          -7.99104209414842   -0.25838783737893   -2.62462500121628
H          -7.04011835213910   -0.23969934984108   -4.11701760901724
H          -0.37467602214342    0.72534226097571   -2.25652352834353
H          -2.40399045185167    0.74105566485054    3.34439997199288
H          -3.29043115302385   -3.86173209645655    1.77260746402752
H          -4.27595183734457   -4.14149750544619    7.63005169996628
H          -8.71779220984584    2.81532857708756    4.86574739249632
H         -10.22766638837101    2.65096869681410    5.76873163523368
H          -8.67865395043182    2.62178686030879    6.61810057104506
H          -0.02277904118196    2.50651948645627    9.37178147808647
H           0.43729266723385    4.20933431240493    9.26760648183647
H          -1.25186247981998    3.73245329009703    9.06289860944319
H          -8.25748670478180   -2.73158236696999   -2.82972696831812
H          -8.87993764879330   -1.90449917410281   -4.26179294363617
H          -7.30963490747985   -2.71261537548512   -4.31658013811247
H           0.14661311719421   -7.42952905162281   -2.71705592428701
H          -0.40592080346092   -9.09923340616203   -2.54634252458454
H          -1.53616926387554   -7.83759067347761   -3.04974846007024
H          -0.89383403043972    4.72763996511749    0.43341745594068
H          -5.15056469315737   -6.25765910059158    8.46138429160729
H           0.99901110084728    9.47643021080148   -2.50096745795361
H           2.27437103891329    8.38578046401300   -8.55712986199144
H           2.75869494378750   10.40845489883117   -9.93476005185393
H           2.83733503727766   12.62209351158793   -8.87920482809074
H           2.45664665486160   12.89939168518923   -6.47863394186436
H          -7.24454000576472  -11.65377664394692    9.56057224274312
H          -7.02229510871475  -15.51509845025130    4.61214535463623
H          -7.59564175281581  -17.89655920268106    5.08492136597360
H          -8.33399023900521  -18.55895179858418    7.32909602206421
H          -8.53677719392189  -16.92069637672793    9.13538443816177
H           1.26718224262872    6.05461689264819   -4.45874087484989
H          -6.50890277115040  -10.85967207619677    5.76285094672091
