# ORCA input file
# SCF done       -259.001197871636          0.000916806257
! wb97x-d3 def2-SVP def2/J RIJCOSX Grid4 TightSCF
%maxcore 5000
%tddft
    Mode sTDA
    Ethresh 5.0
    maxcore 5000
end

%pal
  nprocs 6
  end
* xyz 0 1
   C       -0.86184         2.11648        -0.67002
   C       -0.43568         3.36698        -1.18429
   C       -5.00735        -0.40824         5.30877
   C       -2.64196         0.25863         5.84530
   C       -3.76495        -1.82779        -0.99953
   C       -2.11810        -3.65425        -0.47909
   C       -3.71069        -1.68554        -2.38089
   C       -4.84219        -1.34875        -3.09689
   C       -6.05772        -1.14939        -2.45407
   C       -6.10706        -1.29952        -1.07516
   C       -4.97563        -1.63134        -0.35130
   C       -3.08766        -4.60459        -0.76827
   C       -2.73874        -5.93584        -0.90254
   C       -1.42120        -6.34848        -0.75428
   C       -0.45658        -5.39043        -0.47024
   C       -0.79943        -4.05971        -0.32622
   C       -5.66056        -0.35263         6.53422
   C       -6.98860         0.01875         6.60602
   C       -7.69850         0.34670         5.45764
   C       -7.03896         0.29530         4.23742
   C       -5.70978        -0.08017         4.15830
   C       -3.01854         1.59406         5.81806
   C       -2.15851         2.56909         6.28980
   C       -0.90956         2.23697         6.79734
   C       -0.54019         0.89805         6.82006
   C       -1.39138        -0.08029         6.34402
   C       -9.12721         0.80033         5.53983
   C        0.00154         3.29165         7.35555
   C       -1.04072        -7.78833        -0.94431
   C       -7.29811        -0.83599        -3.23959
   S       -1.61050         2.01653         0.90380
   C       -1.84176         0.31589         0.71963
   C       -1.36559        -0.13289        -0.50163
   C       -0.80264         0.88373        -1.28382
   C       -2.36850        -0.60014         1.68013
   C       -2.62326        -1.90461         1.21747
   C       -2.47681        -2.19464        -0.26594
   O       -1.40563        -1.43004        -0.85777
   C       -2.60596        -0.26751         3.01513
   C       -3.11855        -1.20309         3.88664
   C       -3.35906        -2.51088         3.42709
   C       -3.09492        -2.85115         2.09932
   C       -3.54136        -0.83545         5.29779
   O       -3.40585        -1.94629         6.21059
   C       -3.83078        -3.13490         5.74486
   C       -3.84562        -3.44160         4.39384
   C       -4.23935        -4.19888         6.55898
   C       -4.58233        -5.31990         5.82990
   S       -4.38891        -5.05498         4.11773
   C       -9.19371         2.31966         5.70897
   C       -0.22209         3.44604         8.86132
   C       -7.98137        -2.12832        -3.69174
   C       -0.68593        -8.05758        -2.40808
   C       -5.05846        -6.56642         6.31528
   S        0.24409         3.46899        -2.79851
   C        0.42366         5.18359        -2.63525
   C       -0.02352         5.61836        -1.37452
   C       -0.50649         4.59566        -0.56012
   S       -5.41046        -7.86850         5.19525
   C       -5.89038        -8.89440         6.50281
   C       -5.77160        -8.22623         7.73480
   C       -5.30240        -6.91794         7.62897
   C        1.15087         8.73566        -3.27757
   C        1.60140         9.21801        -4.47818
   C        1.79127         8.49305        -5.75602
   C        2.10135         9.52878        -6.76044
   C        2.15175        10.78993        -6.14510
   C        1.89379        10.62342        -4.71588
   C        2.31747         9.36945        -8.11529
   C        2.58571        10.50025        -8.87307
   C        2.63123        11.75140        -8.27485
   C        2.41756        11.91393        -6.91230
   O        1.71318         7.30148        -5.97723
   C        1.97331        11.62805        -3.78706
   C        1.80785        11.49881        -2.39116
   C        2.27332        12.97197        -4.09825
   N        1.70813        11.49608        -1.24652
   N        2.50037        14.08426        -4.27020
   C       -7.10175       -11.74680         8.49002
   C       -7.40172       -12.97160         7.95407
   C       -7.17500       -13.46123         6.57428
   C       -7.46669       -14.90750         6.61162
   C       -7.89829       -15.27427         7.89651
   C       -7.92598       -14.07946         8.73792
   C       -7.35350       -15.82993         5.58984
   C       -7.67413       -17.15192         5.86272
   C       -8.09333       -17.52505         7.13174
   C       -8.21206       -16.59888         8.15977
   O       -6.81670       -12.84268         5.59258
   C       -8.42809       -14.03248        10.01216
   C       -8.55943       -12.88135        10.81853
   C       -8.93815       -15.15295        10.70274
   N       -8.72864       -12.00159        11.53784
   N       -9.35772       -16.01772        11.33065
   C        0.89145         6.19365        -3.46212
   C        0.81165         7.43770        -2.85372
   S        0.15101         7.31934        -1.21281
   C       -6.35763       -10.19666         6.59420
   C       -6.61010       -10.56440         7.90734
   S       -6.25734        -9.24138         9.03345
   H       -2.77006        -1.84120        -2.88826
   H       -4.78179        -1.23977        -4.17024
   H       -7.04332        -1.15225        -0.55568
   H       -5.04580        -1.74355         0.72074
   H       -4.11896        -4.30537        -0.88557
   H       -3.50458        -6.66579        -1.12235
   H        0.57460        -5.69110        -0.35132
   H       -0.04147        -3.32540        -0.09939
   H       -5.11477        -0.60463         7.43150
   H       -7.48145         0.05545         7.56695
   H       -7.57186         0.54928         3.33209
   H       -5.22349        -0.10802         3.19427
   H       -3.98552         1.87451         5.42662
   H       -2.46402         3.60526         6.26118
   H        0.42866         0.61897         7.20906
   H       -1.09135        -1.11706         6.36413
   H       -9.65941         0.51599         4.62988
   H       -9.61991         0.32191         6.38842
   H        1.04223         3.01580         7.17354
   H       -0.19060         4.24677         6.86312
   H       -0.18131        -8.03009        -0.31579
   H       -1.87158        -8.43273        -0.65066
   H       -7.99104        -0.25839        -2.62463
   H       -7.04012        -0.23970        -4.11702
   H       -0.37468         0.72534        -2.25652
   H       -2.40399         0.74106         3.34440
   H       -3.29043        -3.86173         1.77261
   H       -4.27595        -4.14150         7.63005
   H       -8.71779         2.81533         4.86575
   H      -10.22767         2.65097         5.76873
   H       -8.67865         2.62179         6.61810
   H       -0.02278         2.50652         9.37178
   H        0.43729         4.20933         9.26761
   H       -1.25186         3.73245         9.06290
   H       -8.25749        -2.73158        -2.82973
   H       -8.87994        -1.90450        -4.26179
   H       -7.30963        -2.71262        -4.31658
   H        0.14661        -7.42953        -2.71706
   H       -0.40592        -9.09923        -2.54634
   H       -1.53617        -7.83759        -3.04975
   H       -0.89383         4.72764         0.43342
   H       -5.15056        -6.25766         8.46138
   H        0.99901         9.47643        -2.50097
   H        2.27437         8.38578        -8.55713
   H        2.75869        10.40845        -9.93476
   H        2.83734        12.62209        -8.87920
   H        2.45665        12.89939        -6.47863
   H       -7.24454       -11.65378         9.56057
   H       -7.02230       -15.51510         4.61215
   H       -7.59564       -17.89656         5.08492
   H       -8.33399       -18.55895         7.32910
   H       -8.53678       -16.92070         9.13538
   H        1.26718         6.05462        -4.45874
   H       -6.50890       -10.85967         5.76285
*
