# ORCA input file
# SCF done       -227.011756777516          0.000301366512
! wb97x-d3 def2-SVP def2/J RIJCOSX Grid4 TightSCF
%maxcore 5000
%tddft
    Mode sTDA
    Ethresh 5.0
    maxcore 5000
end

%pal
  nprocs 6
  end
* xyz 0 1
   C        2.80984        -1.15210        -0.67835
   C        2.74129        -0.48168         0.56797
   C        1.71768         0.41445         0.86906
   C        0.75492         0.61111        -0.09201
   C        0.79353        -0.09921        -1.31799
   C        1.82802        -0.97972        -1.62574
   C        4.02274        -2.06421        -0.74174
   C        4.61520        -1.84977         0.62612
   C        3.85201        -0.93299         1.34054
   C        5.71818        -2.30552         1.33026
   C        5.76691        -1.79398         2.62142
   S        4.45519        -0.65877         2.91722
   C       -0.45841         1.51851        -0.02298
   C       -1.16961         1.13312        -1.29592
   C       -0.38891         0.24948        -2.03845
   C       -2.38068         1.42350        -1.89475
   C       -2.53706         0.77168        -3.11564
   S       -1.12148        -0.18529        -3.51912
   C       -1.27573         1.21846         1.21991
   C       -0.10967         2.99373        -0.14943
   C        3.53620        -3.48557        -0.97122
   C        5.05775        -1.64394        -1.77006
   C        3.32846        -3.94272        -2.26661
   C        2.84175        -5.21652        -2.48952
   C        2.54312        -6.06158        -1.42832
   C        2.74522        -5.59469        -0.13676
   C        3.22956        -4.32007         0.09453
   C        5.04279        -0.38629        -2.35467
   C        6.02861        -0.02124        -3.25430
   C        7.05401        -0.89548        -3.58619
   C        7.07275        -2.14806        -2.98485
   C        6.09077        -2.51818        -2.08716
   C       -1.18014         2.00284         2.36085
   C       -1.97091         1.73070         3.46269
   C       -2.86676         0.66975         3.45690
   C       -2.91797        -0.14262         2.33136
   C       -2.12473         0.11931         1.23157
   C       -1.12263         3.93841        -0.02469
   C       -0.85582         5.28289        -0.18949
   C        0.42721         5.72369        -0.49139
   C        1.43379         4.77749        -0.61768
   C        1.17111         3.42831        -0.45578
   C       -3.80136         0.43826         4.60688
   C        0.72173         7.18917        -0.62830
   C        8.14466        -0.48114        -4.53091
   C        2.06191        -7.46200        -1.67501
   C        9.30223         0.16060        -3.76310
   C        3.24914        -8.41887        -1.80206
   C       -5.12005         1.17635         4.36270
   C        1.03050         7.80261         0.73906
   C        6.75787        -2.07369         3.58619
   C        6.69060        -1.94603         4.94216
   C        7.93538        -1.83418         5.74228
   C        7.49246        -1.34455         7.06958
   C        6.08738        -1.29421         7.10729
   C        5.56658        -1.81291         5.84301
   C        8.26392        -0.96090         8.14880
   C        7.60640        -0.50620         9.28083
   C        6.21280        -0.44096         9.31944
   C        5.43599        -0.83742         8.24107
   O        9.06517        -2.05058         5.37189
   C        4.31946        -2.35151         5.66490
   C        3.96751        -3.12556         4.53932
   C        3.28898        -2.27980         6.62404
   N        2.41690        -2.23077         7.36812
   N        3.66597        -3.80703         3.66624
   F        5.60829         0.01818        10.42045
   F        8.31550        -0.12118        10.34854
   C       -4.91612         1.18550        -3.71474
   C       -5.82233         1.67192        -4.78250
   C       -6.96438         2.28884        -4.06287
   C       -6.81350         2.08644        -2.67927
   C       -5.61821         1.27616        -2.45442
   C       -8.04243         2.97716        -4.58287
   C       -8.97785         3.47829        -3.69097
   C       -8.82891         3.28756        -2.31653
   C       -7.75276         2.58690        -1.79269
   O       -5.64499         1.61904        -5.97673
   C       -5.37048         0.52111        -1.33671
   C       -4.41294        -0.51247        -1.31989
   C       -6.07263         0.63035        -0.12115
   N       -3.69454        -1.40701        -1.28779
   N       -6.57645         0.71092         0.90726
   F      -10.03657         4.15424        -4.15245
   F       -9.74300         3.79260        -1.48093
   C       -3.62691         0.83569        -4.00694
   H        1.68335         0.92409         1.81990
   H        1.84447        -1.50722        -2.56661
   H        6.43969        -3.01373         0.96590
   H       -3.11765         2.09808        -1.49807
   H        3.56127        -3.30379        -3.10674
   H        2.68874        -5.55778        -3.50355
   H        2.51707        -6.23201         0.70492
   H        3.36772        -3.98511         1.11153
   H        4.25621         0.31374        -2.11275
   H        5.99715         0.95974        -3.70678
   H        7.86451        -2.84289        -3.22571
   H        6.11469        -3.50002        -1.63717
   H       -0.49807         2.84079         2.38537
   H       -1.89488         2.35964         4.33829
   H       -3.59033        -0.98776         2.31032
   H       -2.17574        -0.53219         0.37186
   H       -2.12486         3.61645         0.21803
   H       -1.65582         6.00201        -0.08645
   H        2.43931         5.09676        -0.85211
   H        1.97395         2.71477        -0.56864
   H       -4.00114        -0.62958         4.71212
   H       -3.35030         0.79679         5.53428
   H        1.57777         7.33471        -1.28997
   H       -0.13897         7.69981        -1.06495
   H        8.51394        -1.35285        -5.07470
   H        7.75390         0.23466        -5.25679
   H        1.42617        -7.78536        -0.84873
   H        1.47295        -7.49520        -2.59382
   H        9.71554        -0.54259        -3.04354
   H       10.09173         0.46150        -4.44756
   H        8.95708         1.03920        -3.22257
   H        3.84098        -8.40949        -0.88951
   H        2.90268        -9.43397        -1.98112
   H        3.88999        -8.11958        -2.62866
   H       -5.58001         0.83743         3.43715
   H       -5.81214         0.99751         5.18189
   H       -4.94423         2.24726         4.28448
   H        1.89498         7.31612         1.18536
   H        1.24185         8.86458         0.64011
   H        0.18358         7.67789         1.41000
   H        7.72756        -2.36739         3.19498
   H        9.34064        -1.01134         8.11881
   H        4.36266        -0.76843         8.31295
   H       -8.16042         3.12149        -5.64492
   H       -7.67594         2.46153        -0.72454
   H       -3.41674         0.65447        -5.05576
*
