210
 SCF done       -351.483393836164          0.000882458271
C          -4.66776427686588   14.29972622831326   -3.56905967948235
C          -5.79898121557688   13.56325057350940   -3.99578838778780
C          -6.98579339175001   14.21510167294340   -4.23761942850433
C          -7.00617837480669   15.60033139288780   -4.07934536524002
C          -5.87067225307123   16.33762431982298   -3.66372088871115
C          -4.68533318220865   15.68538879005719   -3.41822593648141
C          -8.06490293202768   16.53277203862611   -4.29310954376042
C          -7.62266332397918   17.83263042820955   -4.03393490553230
C          -6.18003154927974   17.82489794325344   -3.59242754754713
C          -3.61478323286235   13.36706378869383   -3.33397560984154
C          -4.05044103533287   12.06687261851531   -3.60152029952623
C          -5.48202985165736   12.07771097826370   -4.08058580050802
S          -9.70596227933772   16.44103135829185   -4.75792580722072
C          -9.84381776046391   18.18407331484360   -4.59247736823140
C          -8.62880042144943   18.76047766860639   -4.19000976662834
S          -1.99073170657448   13.46224542073132   -2.81679479797892
C          -1.84408116695698   11.71961421995498   -2.97954723895962
C          -3.04631837560454   11.14116018112193   -3.41741073688802
C          -6.12890039556223   18.37516962080982   -2.15086691127048
C          -5.25762061445048   18.56743007142143   -4.57890628279496
C          -5.49407482264999   20.06838908149651   -4.68032740970585
C          -4.75494971193394   18.40824004357637   -1.49497072456900
C          -5.48780895066645   11.56171318239426   -5.53618468430001
C          -6.43120902991578   11.31059716339925   -3.14069531139357
C          -6.83856143668311   11.56542411026579   -6.23912378170065
C          -6.19339972715488    9.80833154391762   -3.06490129223027
C          -0.69835669977516   10.94989088050257   -2.73838850765846
C         -10.98929698463760   18.96038908881744   -4.80849532598305
C         -12.25999174851561   18.60000650975851   -5.18148158856751
C           0.55774148849440   11.32241877641853   -2.32799146246228
C           0.98774683762089   12.69211523251367   -2.01640602670831
C           2.40820129987944   12.60181137957298   -1.65883802372198
C           2.83177158069081   11.26289080683292   -1.74373513649962
C           1.68862851444653   10.43594569189223   -2.13955000917974
C         -12.72333329665334   17.23313977673607   -5.44888469347631
C         -14.15441680406680   17.34600054903085   -5.78517001334447
C         -14.53986165839886   18.69696837108376   -5.73347476108724
C         -13.37672031863356   19.50582810829910   -5.36567554723466
C           3.28278392283040   13.61117870919009   -1.30131333668866
C           4.59695749138842   13.27885796864233   -1.03981304896020
C           5.04947722607515   11.95496298600246   -1.13245537914501
C           4.14737728083745   10.93716761090353   -1.48310730008935
C         -15.04869787353557   16.34510906769685   -6.10845816330860
C         -16.36056219393750   16.70369050323552   -6.38593566869489
C         -16.75043115197210   18.03389803059072   -6.33660882849942
C         -15.85247010259176   19.04318191047785   -6.01220431528881
O           0.31497761566264   13.70913428751848   -2.04797020554406
O         -12.07130099725888   16.20471252540965   -5.40527132829908
C         -13.37671087921638   20.87059272354201   -5.23319345007872
C           1.71915479484957    9.07293984014860   -2.28814134466854
C           0.63045298259726    8.25665002173766   -2.65843135434765
C           2.86806712844896    8.28169668451474   -2.07872591664100
C         -12.26775450422789   21.66969946552910   -4.88558506255368
C         -14.50974980514589   21.68747245563808   -5.43292872934085
N          -0.20116421646794    7.52077820676526   -2.95392153954858
N           3.76458690572148    7.58075119758741   -1.92463031806425
N         -15.38649869238703   22.41481425608296   -5.57521235123293
N         -11.41868567652215   22.39523301754899   -4.61479055585490
C           6.43820300220652   11.65019187457999   -0.89029676613521
C           7.07827429513126   10.43148768669917   -0.87056979147236
C           8.45334757277870   10.52159538390422   -0.63632156628802
C           8.89479193846140   11.81475846815286   -0.47277694104865
S           7.57643549919982   12.93738812288269   -0.60079097170802
C          10.21649487903793   12.29652643042209   -0.26049259110848
C          10.60608793471336   13.60806980870660   -0.10032023572199
C          11.98571382834335   13.76053403412367    0.03503065127999
C          12.67891238268586   12.57216057129510   -0.01204097262936
S          11.58660452710266   11.23157485790147   -0.21739581903188
C          26.96904095632239   11.21201640147466   -0.23541160965637
C          26.10797923783724   12.29771089818682   -0.54516517761329
C          24.74575682563180   12.12949754472934   -0.44695591081101
C          24.27256804770344   10.88387918878144   -0.03967602022746
C          25.13308090737024    9.80597857977895    0.26773285068550
C          26.49513455934035    9.96561217325862    0.17120066189381
C          22.93477020052041   10.42897028221822    0.15607122587193
C          22.93055281990525    9.09326127112354    0.56830800576530
C          24.33985425282139    8.56564552913834    0.64612864595227
C          28.30706813056175   11.66353844949656   -0.44176480351904
C          28.31087960685115   12.98354626897178   -0.88122786688438
C          26.90273544275546   13.51504819902957   -0.98780254904449
S          21.38288791700485   11.12925542171373    0.05384070318196
C          20.66950437749020    9.60622957538001    0.56202885927419
C          21.65321159310054    8.63306028630275    0.80438469598969
S          29.88074867150434   11.01592880334347   -0.30088839068771
C          30.57298862099016   12.54542690354414   -0.85713201431145
C          29.57879400933647   13.48468216169871   -1.11355182089146
C          24.61265900013127    7.48532781344139   -0.42408349845759
C          24.69031568564414    8.06918230409699    2.05777903074880
C          24.55237721308054    9.16063395770876    3.11301952301682
C          23.76308108786396    6.22733257019279   -0.30399905635522
C          26.77847846015190   14.74154286435078   -0.05167531436572
C          26.66794619105180   13.85671089136056   -2.47767891257098
C          25.40637179815013   15.01542278616435    0.55195839108975
C          25.32906468865436   14.48320042564550   -2.83983167005199
C          31.97551081551670   12.59928434533942   -0.93554363541162
C          19.30199107365647    9.32885687350670    0.68869686283731
C          18.20750321872390   10.13651242634503    0.49753610289291
C          32.82291288519890   13.56709579856116   -1.40953842794826
C          32.49413941461444   14.82191176835004   -2.12970578279779
C          33.77724537484337   15.34635339067560   -2.61857127910404
C          34.83036623531345   14.52244156919839   -2.18531848214114
C          34.27031082339334   13.44144799895271   -1.37602258646730
C          18.24568791857417   11.57076808891662    0.18504567408519
C          16.84765372168685   12.01333523099792    0.12739557286907
C          15.99603607733480   10.91717962784293    0.35494885866097
C          16.81980657380408    9.72990012189484    0.59898256997808
C          34.01819814587638   16.46211857357343   -3.40067792547977
C          35.32152561173984   16.75207825186143   -3.75277273314454
C          36.38833049628592   15.94131713903060   -3.33866466846425
C          36.13021359569701   14.81172783331222   -2.54569927040530
C          16.34680367908497   13.27734094290275   -0.12200628878586
C          14.97701292874008   13.44971206550484   -0.15437759981302
C          14.10619541554199   12.37087847135305    0.05621606808661
C          14.62771188387714   11.09350302422282    0.31329123338585
O          31.40741623021741   15.33598103541781   -2.31308980167892
O          19.22912826759353   12.27076351173771    0.00864473513766
C          16.33115496715785    8.47528031803497    0.85767380046642
C          35.01169712135784   12.53469521261458   -0.66352102627263
C          34.50757551462429   11.54377249644347    0.20565534252805
C          36.42206654188530   12.49489278323326   -0.66604741451270
C          17.10541435317926    7.31784662881362    1.08087754438498
C          14.95743780686562    8.16221914151551    0.93520203057434
N          34.19477691714003   10.71863401839683    0.94145508248021
N          37.56610720020330   12.40449679991134   -0.62220307215008
N          13.85893937611589    7.83777185524006    1.01447049805371
N          17.66099615030793    6.32986043384184    1.26928001135630
C          37.74063006283426   16.25917304119045   -3.72349404685118
C          38.91455333231795   15.65735704529027   -3.33224834273102
C          40.05527323024775   16.22550623142007   -3.90541818088400
C          39.77800648099122   17.27421962590784   -4.75069795087629
S          38.06932166442321   17.56573572464946   -4.83198253125968
C          40.69283103737126   18.07031827804029   -5.49940328997081
C          40.41796890780845   19.11471423066665   -6.34616926830158
C          41.57140883467056   19.67452501149898   -6.92294422851689
C          42.71340999864831   19.05881121026183   -6.51619522185854
S          42.40794655700257   17.77670455164433   -5.41614045145067
H          -7.88551895103917   13.70035535208640   -4.53520420375902
H          -3.78506812143451   16.19947742691490   -3.12172443894441
H          -8.54366928597033   19.81952211744478   -4.02238971601108
H          -3.12408402571674   10.08188390726526   -3.58728240772923
H          -6.54301646562474   19.38472175336198   -2.16700731765136
H          -6.79616134883637   17.76034952513076   -1.54072303376361
H          -4.22312875983074   18.38268325580678   -4.28642548907024
H          -5.40140802747194   18.11777896296230   -5.56514744935493
H          -5.33740868133510   20.56077678489786   -3.72467184722997
H          -4.79703768268622   20.49562780996420   -5.39796614472793
H          -6.50218585183293   20.28101538883638   -5.02417493244604
H          -4.04371468884498   18.97635501635780   -2.08804232945736
H          -4.83645157089442   18.88476752046298   -0.52026623754596
H          -4.36825181178428   17.40466808441024   -1.34437469816421
H          -4.79189801615943   12.18239231748909   -6.10728148731065
H          -5.08717194969258   10.54669581693124   -5.53074577533030
H          -6.32050449036272   11.73881052569289   -2.14078265296173
H          -7.45674228656910   11.49797068486064   -3.46167968338332
H          -7.20831457909749   12.57835504197754   -6.36968730532721
H          -6.72932181020513   11.11902023345401   -7.22528917548233
H          -7.57581225616636   10.98772910092825   -5.68853459280800
H          -5.19655345716968    9.59036359427350   -2.69292303174515
H          -6.91232977817639    9.36358954051561   -2.38028821440296
H          -6.31739472604713    9.33702418155272   -4.03589946690115
H          -0.85457215464707    9.89376965543299   -2.92343763203800
H         -10.81681448440957   20.01670550910886   -4.64015906148862
H           2.93531731492076   14.63064369522503   -1.23696501001121
H           5.29925902417100   14.05132125055299   -0.76255349077137
H           4.49465953178401    9.92153838321545   -1.55579739236550
H         -14.72213614442805   15.31699090834994   -6.13991143715310
H         -17.08340409812671   15.94360899039417   -6.64148054939181
H         -17.77493146515840   18.29595749112601   -6.55446870955811
H         -16.18642380694244   20.06716600567628   -5.98180159007968
H           6.57577773252210    9.49286047129250   -1.01924747861679
H           9.11366983110121    9.67375162128644   -0.58978718717485
H           9.90441838107186   14.42335277221635   -0.08897696590580
H          12.45471965120229   14.71646161178976    0.18117580110059
H          24.04037412563503   12.91329281438952   -0.66582908274937
H          27.18853880306028    9.16981234453561    0.39760864544015
H          21.39113518516860    7.64766486441979    1.14718731000185
H          29.80681892964340   14.47646583031185   -1.45629284421471
H          24.44190539523161    7.93463107517998   -1.40599585326664
H          25.66860701555364    7.21376590190586   -0.36443957119975
H          24.02823323489337    7.24173038062857    2.31482188968678
H          25.71600111191156    7.69535277669019    2.05300983977685
H          23.53286973565024    9.53863070543939    3.14494247842449
H          24.80112923262808    8.76367233485156    4.09424210921069
H          25.21986584620457    9.99256930874352    2.89938333572977
H          22.70774117458515    6.45944831041604   -0.41504759757639
H          24.03948086432149    5.52957296862976   -1.09123778002864
H          23.91706899257331    5.73384464900641    0.65151886042467
H          27.47816305891722   14.59815301970904    0.77624654818273
H          27.11425082977970   15.61743860334443   -0.60989784476697
H          27.46545190827930   14.53927575157337   -2.78058897595515
H          26.79224982427377   12.93302471135047   -3.05003545637247
H          25.09377380412456   14.19433764358322    1.19214340375676
H          25.46383171452036   15.91504251948993    1.16176638350708
H          24.64855578063728   15.17300090607480   -0.20847891627781
H          24.50202942092001   13.82335554673740   -2.59585593050725
H          25.19041189620495   15.43502746893238   -2.33560362750613
H          25.30439115339616   14.66688857249266   -3.91221304423762
H          32.45135326318441   11.69642559753433   -0.56990893722874
H          19.10428036804757    8.30328212523033    0.97706746224100
H          33.19699014117781   17.08432499216203   -3.72158242251886
H          35.53333003262027   17.61982314850604   -4.36035910642058
H          36.94470080098129   14.17939125712502   -2.23984475574781
H          17.02228710861812   14.10106394095783   -0.29439411160102
H          14.57055862846132   14.42545653986279   -0.36710982758429
H          13.94514071814682   10.27489806828276    0.47683978722647
H          38.96185747032514   14.83334095087141   -2.64362531466114
H          41.05789418906719   15.88628733277541   -3.71404301039117
H          39.41733070953516   19.45859960481353   -6.53950801185647
H          41.55399052569922   20.50007151181662   -7.61148764073638
H          43.72459326538021   19.27847770003871   -6.79528271034011
