# ORCA input file
# SCF done       -351.483393836164          0.000882458271
! wb97x-d3 def2-SVP def2/J RIJCOSX Grid4 TightSCF
%maxcore 5000
%tddft
    Mode sTDA
    Ethresh 5.0
    maxcore 5000
end

%pal
  nprocs 6
  end
* xyz 0 1
   C       -4.66776        14.29973        -3.56906
   C       -5.79898        13.56325        -3.99579
   C       -6.98579        14.21510        -4.23762
   C       -7.00618        15.60033        -4.07935
   C       -5.87067        16.33762        -3.66372
   C       -4.68533        15.68539        -3.41823
   C       -8.06490        16.53277        -4.29311
   C       -7.62266        17.83263        -4.03393
   C       -6.18003        17.82490        -3.59243
   C       -3.61478        13.36706        -3.33398
   C       -4.05044        12.06687        -3.60152
   C       -5.48203        12.07771        -4.08059
   S       -9.70596        16.44103        -4.75793
   C       -9.84382        18.18407        -4.59248
   C       -8.62880        18.76048        -4.19001
   S       -1.99073        13.46225        -2.81679
   C       -1.84408        11.71961        -2.97955
   C       -3.04632        11.14116        -3.41741
   C       -6.12890        18.37517        -2.15087
   C       -5.25762        18.56743        -4.57891
   C       -5.49407        20.06839        -4.68033
   C       -4.75495        18.40824        -1.49497
   C       -5.48781        11.56171        -5.53618
   C       -6.43121        11.31060        -3.14070
   C       -6.83856        11.56542        -6.23912
   C       -6.19340         9.80833        -3.06490
   C       -0.69836        10.94989        -2.73839
   C      -10.98930        18.96039        -4.80850
   C      -12.25999        18.60001        -5.18148
   C        0.55774        11.32242        -2.32799
   C        0.98775        12.69212        -2.01641
   C        2.40820        12.60181        -1.65884
   C        2.83177        11.26289        -1.74374
   C        1.68863        10.43595        -2.13955
   C      -12.72333        17.23314        -5.44888
   C      -14.15442        17.34600        -5.78517
   C      -14.53986        18.69697        -5.73347
   C      -13.37672        19.50583        -5.36568
   C        3.28278        13.61118        -1.30131
   C        4.59696        13.27886        -1.03981
   C        5.04948        11.95496        -1.13246
   C        4.14738        10.93717        -1.48311
   C      -15.04870        16.34511        -6.10846
   C      -16.36056        16.70369        -6.38594
   C      -16.75043        18.03390        -6.33661
   C      -15.85247        19.04318        -6.01220
   O        0.31498        13.70913        -2.04797
   O      -12.07130        16.20471        -5.40527
   C      -13.37671        20.87059        -5.23319
   C        1.71915         9.07294        -2.28814
   C        0.63045         8.25665        -2.65843
   C        2.86807         8.28170        -2.07873
   C      -12.26775        21.66970        -4.88559
   C      -14.50975        21.68747        -5.43293
   N       -0.20116         7.52078        -2.95392
   N        3.76459         7.58075        -1.92463
   N      -15.38650        22.41481        -5.57521
   N      -11.41869        22.39523        -4.61479
   C        6.43820        11.65019        -0.89030
   C        7.07827        10.43149        -0.87057
   C        8.45335        10.52160        -0.63632
   C        8.89479        11.81476        -0.47278
   S        7.57644        12.93739        -0.60079
   C       10.21649        12.29653        -0.26049
   C       10.60609        13.60807        -0.10032
   C       11.98571        13.76053         0.03503
   C       12.67891        12.57216        -0.01204
   S       11.58660        11.23157        -0.21740
   C       26.96904        11.21202        -0.23541
   C       26.10798        12.29771        -0.54517
   C       24.74576        12.12950        -0.44696
   C       24.27257        10.88388        -0.03968
   C       25.13308         9.80598         0.26773
   C       26.49513         9.96561         0.17120
   C       22.93477        10.42897         0.15607
   C       22.93055         9.09326         0.56831
   C       24.33985         8.56565         0.64613
   C       28.30707        11.66354        -0.44176
   C       28.31088        12.98355        -0.88123
   C       26.90274        13.51505        -0.98780
   S       21.38289        11.12926         0.05384
   C       20.66950         9.60623         0.56203
   C       21.65321         8.63306         0.80438
   S       29.88075        11.01593        -0.30089
   C       30.57299        12.54543        -0.85713
   C       29.57879        13.48468        -1.11355
   C       24.61266         7.48533        -0.42408
   C       24.69032         8.06918         2.05778
   C       24.55238         9.16063         3.11302
   C       23.76308         6.22733        -0.30400
   C       26.77848        14.74154        -0.05168
   C       26.66795        13.85671        -2.47768
   C       25.40637        15.01542         0.55196
   C       25.32906        14.48320        -2.83983
   C       31.97551        12.59928        -0.93554
   C       19.30199         9.32886         0.68870
   C       18.20750        10.13651         0.49754
   C       32.82291        13.56710        -1.40954
   C       32.49414        14.82191        -2.12971
   C       33.77725        15.34635        -2.61857
   C       34.83037        14.52244        -2.18532
   C       34.27031        13.44145        -1.37602
   C       18.24569        11.57077         0.18505
   C       16.84765        12.01334         0.12740
   C       15.99604        10.91718         0.35495
   C       16.81981         9.72990         0.59898
   C       34.01820        16.46212        -3.40068
   C       35.32153        16.75208        -3.75277
   C       36.38833        15.94132        -3.33866
   C       36.13021        14.81173        -2.54570
   C       16.34680        13.27734        -0.12201
   C       14.97701        13.44971        -0.15438
   C       14.10620        12.37088         0.05622
   C       14.62771        11.09350         0.31329
   O       31.40742        15.33598        -2.31309
   O       19.22913        12.27076         0.00864
   C       16.33115         8.47528         0.85767
   C       35.01170        12.53470        -0.66352
   C       34.50758        11.54377         0.20566
   C       36.42207        12.49489        -0.66605
   C       17.10541         7.31785         1.08088
   C       14.95744         8.16222         0.93520
   N       34.19478        10.71863         0.94146
   N       37.56611        12.40450        -0.62220
   N       13.85894         7.83777         1.01447
   N       17.66100         6.32986         1.26928
   C       37.74063        16.25917        -3.72349
   C       38.91455        15.65736        -3.33225
   C       40.05527        16.22551        -3.90542
   C       39.77801        17.27422        -4.75070
   S       38.06932        17.56574        -4.83198
   C       40.69283        18.07032        -5.49940
   C       40.41797        19.11471        -6.34617
   C       41.57141        19.67453        -6.92294
   C       42.71341        19.05881        -6.51620
   S       42.40795        17.77670        -5.41614
   H       -7.88552        13.70036        -4.53520
   H       -3.78507        16.19948        -3.12172
   H       -8.54367        19.81952        -4.02239
   H       -3.12408        10.08188        -3.58728
   H       -6.54302        19.38472        -2.16701
   H       -6.79616        17.76035        -1.54072
   H       -4.22313        18.38268        -4.28643
   H       -5.40141        18.11778        -5.56515
   H       -5.33741        20.56078        -3.72467
   H       -4.79704        20.49563        -5.39797
   H       -6.50219        20.28102        -5.02417
   H       -4.04371        18.97636        -2.08804
   H       -4.83645        18.88477        -0.52027
   H       -4.36825        17.40467        -1.34437
   H       -4.79190        12.18239        -6.10728
   H       -5.08717        10.54670        -5.53075
   H       -6.32050        11.73881        -2.14078
   H       -7.45674        11.49797        -3.46168
   H       -7.20831        12.57836        -6.36969
   H       -6.72932        11.11902        -7.22529
   H       -7.57581        10.98773        -5.68853
   H       -5.19655         9.59036        -2.69292
   H       -6.91233         9.36359        -2.38029
   H       -6.31739         9.33702        -4.03590
   H       -0.85457         9.89377        -2.92344
   H      -10.81681        20.01671        -4.64016
   H        2.93532        14.63064        -1.23697
   H        5.29926        14.05132        -0.76255
   H        4.49466         9.92154        -1.55580
   H      -14.72214        15.31699        -6.13991
   H      -17.08340        15.94361        -6.64148
   H      -17.77493        18.29596        -6.55447
   H      -16.18642        20.06717        -5.98180
   H        6.57578         9.49286        -1.01925
   H        9.11367         9.67375        -0.58979
   H        9.90442        14.42335        -0.08898
   H       12.45472        14.71646         0.18118
   H       24.04037        12.91329        -0.66583
   H       27.18854         9.16981         0.39761
   H       21.39114         7.64766         1.14719
   H       29.80682        14.47647        -1.45629
   H       24.44191         7.93463        -1.40600
   H       25.66861         7.21377        -0.36444
   H       24.02823         7.24173         2.31482
   H       25.71600         7.69535         2.05301
   H       23.53287         9.53863         3.14494
   H       24.80113         8.76367         4.09424
   H       25.21987         9.99257         2.89938
   H       22.70774         6.45945        -0.41505
   H       24.03948         5.52957        -1.09124
   H       23.91707         5.73384         0.65152
   H       27.47816        14.59815         0.77625
   H       27.11425        15.61744        -0.60990
   H       27.46545        14.53928        -2.78059
   H       26.79225        12.93302        -3.05004
   H       25.09377        14.19434         1.19214
   H       25.46383        15.91504         1.16177
   H       24.64856        15.17300        -0.20848
   H       24.50203        13.82336        -2.59586
   H       25.19041        15.43503        -2.33560
   H       25.30439        14.66689        -3.91221
   H       32.45135        11.69643        -0.56991
   H       19.10428         8.30328         0.97707
   H       33.19699        17.08432        -3.72158
   H       35.53333        17.61982        -4.36036
   H       36.94470        14.17939        -2.23984
   H       17.02229        14.10106        -0.29439
   H       14.57056        14.42546        -0.36711
   H       13.94514        10.27490         0.47684
   H       38.96186        14.83334        -2.64363
   H       41.05789        15.88629        -3.71404
   H       39.41733        19.45860        -6.53951
   H       41.55399        20.50007        -7.61149
   H       43.72459        19.27848        -6.79528
*
