190
 SCF done       -298.183940049205          0.000401231454
C           2.64739825389310   -1.54120480693116   -0.25830691672331
C           2.78666439958521   -1.02412614959169    1.05025458984904
C           1.91618971871664   -0.06513673703116    1.56455650762103
C           0.86403128615723    0.31695412619279    0.76658635396240
C           0.67287773971758   -0.27525351792407   -0.50292425569601
C           1.58457738409162   -1.17417239511561   -1.04859567704115
C           3.77299102253109   -2.51359374422761   -0.57973121515350
C           4.47588064177081   -2.58271891143613    0.75392717447939
C           3.89095345204800   -1.70165101699346    1.65124357821406
C           5.51429550964995   -3.31407055126961    1.31856520014864
C           5.70286322488029   -3.00806342217548    2.65798835065506
S           4.57619453614040   -1.79388649651730    3.22035992076501
C          -0.26669139405511    1.28856181109083    1.08069719344407
C          -1.19447229376550    1.03117865080075   -0.08460522573283
C          -0.59025403858020    0.17292894020782   -0.99026657224671
C          -2.46309946385023    1.42924974951976   -0.49320143019987
C          -2.84245375055619    0.82773795381247   -1.68399173754441
S          -1.59736723166411   -0.22321964751843   -2.31786822528456
C           6.66318012917801   -3.56187210633777    3.56200722009632
C          -4.08219499232297    0.95391155364185   -2.38699870934766
C          -0.82823888649272    0.95919150428855    2.44569879912239
C           0.15536984917716    2.74444825742626    0.98318341648021
C           3.31097098221132   -3.89355047148871   -0.99853143048202
C           4.61468072810926   -1.86153917099581   -1.66481159458008
C           7.73782554932726   -4.34348596049883    3.15483011473673
C           8.62655321550095   -4.90415989381079    4.06464152586546
C           8.47949024594714   -4.74297374243778    5.43206677488889
C           7.41579930230395   -3.91394160307080    5.88968067569818
C           6.52358019563163   -3.32685044204056    4.96164506998428
C          -5.01812030378510    1.94743876203507   -2.13114825276750
C          -6.22292629129991    2.01609060625336   -2.82327789660923
C          -6.58339767349479    1.07174858220488   -3.76813230032181
C          -5.64505154757573    0.04622746335246   -4.07632489583151
C          -4.39730745789732    0.01185025233455   -3.41077458607108
C           9.39379580927946   -5.28246914947747    6.40666922935670
C           8.99349848285695   -5.67581416988302    7.63426454728472
C          -7.81212782559190    1.11800590247439   -4.52360880907093
C          -8.51681645650259    0.00950350477963   -4.83305257681457
C          -8.43747675243613   -1.28622478661705   -4.14396363228287
N          -9.30008381867071   -2.19172278365627   -4.74424334943860
C         -10.03406282722490   -1.75823877919177   -5.79773397434960
S          -9.75363986847456   -0.04514538166687   -6.07487716383750
C           7.61808363260656   -6.00503038168860    8.03906725253882
N           7.55010168194136   -6.10478159272004    9.42214495293745
C           8.71154310858451   -6.02337097166201   10.11269726194558
S          10.07039225022754   -5.84717374909036    9.00835543604895
C           6.28652349040050   -6.37752737697754   10.07627487829160
O           6.68088536838244   -6.26950855290906    7.32061974731389
S           8.85931834243397   -6.08034115595798   11.73538443383686
C           4.21322242265815   -4.75741306025662   -1.60890129518215
C           3.82076209020564   -6.02092896916562   -2.00546532953666
C           2.51801357495565   -6.45889771575315   -1.80274649866343
C           1.62821586043629   -5.60382720179443   -1.16780379261695
C           2.01788953362849   -4.33899099071203   -0.76443799863869
C           5.72796087555104   -1.09372887740737   -1.35442555831414
C           6.45295971093351   -0.47140411782610   -2.35432908767404
C           6.08099647663425   -0.58933419010087   -3.68611176861207
C           4.96085906464856   -1.35179367960978   -3.99152579567198
C           4.23437300774099   -1.97673788285249   -2.99658774782250
C          -0.23854765462218    1.50151100695450    3.58177252175462
C          -0.69316175039265    1.15983246105249    4.84048799516828
C          -1.74062666139830    0.26151469408849    5.00113673290840
C          -2.32537496360600   -0.27862018252068    3.86387755051547
C          -1.87358048166413    0.06028181574219    2.60105094520622
C           1.35079205070516    3.12781970321364    0.39343961912703
C           1.67327659548495    4.46789066129132    0.27426747134226
C           0.81318308068162    5.45553312813158    0.73348540418305
C          -0.38762443923506    5.06623098962151    1.31356985962297
C          -0.71437337008074    3.72995177216495    1.43539414869156
O          -7.81821411698245   -1.54482204658571   -3.13743637682093
C          -9.44778689402361   -3.53040372269865   -4.20743653698916
C          -2.25533139564552   -0.07704497591754    6.37115797719269
C           1.14788110846272    6.90910461349075    0.55858715688773
C           6.89700123612126    0.04941184315180   -4.77296703400450
C           2.09915145476440   -7.84137914225984   -2.21352612294613
C           2.36380011773725   -8.83835408019591   -1.08367300860390
C           7.98744948118473   -0.90876789057642   -5.25640389007496
C          -3.31306580012909    0.93712905798933    6.81073459131130
C           0.65471031160212    7.41043140992356   -0.80032937612442
S         -11.05843754069576   -2.67052704774694   -6.67970087601087
C           6.11855828529086   -7.86535846741419   10.35822061350486
C          -8.60343193033064   -4.54461687482747   -4.96530163017253
N           7.25387092820320   -3.67606235382082    7.19805656812051
C           6.23922137108377   -2.96238990980632    7.62374759763596
C           5.35212806247278   -2.34866425404841    6.68688024095631
N           5.53287645943434   -2.54550097851388    5.40206527126532
C           6.08559704718269   -2.91544253985778    9.08289025460800
C           4.25479496970635   -1.44655672922964    7.05393600596429
C           4.39510481391431   -0.49268435619991    8.05960723948791
C           3.34938284073242    0.36272402735434    8.35141326227992
C           2.15978794244813    0.28052215114392    7.64543277099246
C           2.01856731089146   -0.65573998849290    6.63424881956182
C           3.06102564367113   -1.51264019441825    6.33787183355628
C           7.22447072254991   -2.84152829580827    9.88250692759601
C           7.11640543939221   -2.88407972613936   11.25924718422254
C           5.87045893712397   -3.01540213321975   11.85154656485929
C           4.73543969744867   -3.10613826775965   11.06175393438149
C           4.83713542118058   -3.05783287743418    9.68379997993073
N          -5.92097052398912   -0.87242345232274   -5.01089542103985
C          -5.04751052779927   -1.80985063414578   -5.29752329996879
C          -3.75872058279199   -1.80213569510474   -4.67918413642172
N          -3.49144080280032   -0.90571330115170   -3.75903845491367
C          -5.51408566425443   -2.83086131384242   -6.24195674843560
C          -2.64992433580549   -2.69508161813883   -5.03882677702583
C          -2.35397764392752   -2.98707084477057   -6.36848422227198
C          -1.27057651525158   -3.78854998746646   -6.67574556879931
C          -0.47141500832597   -4.30292042545922   -5.66707267060460
C          -0.75303459258574   -4.00623540187987   -4.34349438789846
C          -1.83389805288833   -3.20399995059599   -4.03027507754003
C          -6.41567168330868   -2.45949423825068   -7.23905608732498
C          -6.92303905760008   -3.40233160914337   -8.11147759093119
C          -6.54083931468556   -4.72946164470141   -7.99592099561284
C          -5.66069316514422   -5.10983816270093   -6.99588626892291
C          -5.15148097453673   -4.17083658504365   -6.11783370264958
H           2.06066471122935    0.33072212751759    2.55819118019658
H           1.42706850714421   -1.58204474937489   -2.03521875949206
H           6.09091192229003   -4.05559003448603    0.79608321728422
H          -3.10471161035873    2.09067837850634    0.06042261517346
H           7.89050129005127   -4.52442758050192    2.10209584722469
H           9.43609430098728   -5.51752893840182    3.69614269674180
H          -4.80476157242255    2.69509613701525   -1.38278553180878
H          -6.91800716234696    2.80875486811927   -2.58651619016787
H          10.45015842419381   -5.26042533945209    6.17331203975100
H          -8.11675429335253    2.07253310594705   -4.93297000378203
H           6.25637601617463   -5.80298225368798   11.00524002131784
H           5.50550408390099   -6.02692640951503    9.39820839573418
H           5.22680186879039   -4.42848792689477   -1.78916500405903
H           4.53368739208665   -6.67507082992508   -2.48756855560886
H           0.61275040255112   -5.92937681100873   -0.98857083127129
H           1.30583684479429   -3.69441578964263   -0.27049993330463
H           6.03508859035479   -0.98017764449872   -0.32514600865451
H           7.31998391666239    0.11899013146112   -2.09301994210092
H           4.65050536501703   -1.45451489481442   -5.02182765440143
H           3.36921834360143   -2.56831088490343   -3.25867279000029
H           0.57696696652316    2.20307698049789    3.47930593905838
H          -0.22428107496158    1.59661069236727    5.71100149917565
H          -3.14274794713961   -0.97853716716373    3.96641271672555
H          -2.33859343138591   -0.37820251203934    1.73000620825108
H           2.03667555539650    2.37860312048549    0.02598701760960
H           2.61155154546994    4.74906482577832   -0.18286463848706
H          -1.07350965784459    5.81916765538564    1.67595438782351
H          -1.64941816840000    3.44448063451302    1.89587405983985
H          -9.13014590785361   -3.47582177421209   -3.16286309107890
H         -10.50576943783315   -3.79982372017282   -4.26400315401442
H          -2.69521687248431   -1.07644260276262    6.36553316761759
H          -1.43212638236005   -0.07130042765761    7.08935058401756
H           0.67801569564425    7.49600211231240    1.35053349872656
H           2.22870599318273    7.05079616275345    0.62349213879319
H           6.25184235356109    0.31369323983973   -5.61331708029955
H           7.36201474537663    0.96355097091440   -4.39821387808677
H           1.03479046819049   -7.84909824066874   -2.45815830215306
H           2.65604126074195   -8.14857215857371   -3.10139501975464
H           1.80805343825123   -8.55570895057823   -0.19240042143087
H           2.06076198028287   -9.83998806080650   -1.37992926223132
H           3.42238309912771   -8.85479420490480   -0.83409116865345
H           7.54248594215561   -1.82152899199527   -5.64646573437505
H           8.58002915908132   -0.44709684023253   -6.04287201266076
H           8.64810059747903   -1.17490922823582   -4.43419844194836
H          -4.14961715506589    0.93546023401780    6.11546778030782
H          -3.68568563537553    0.69426954188807    7.80324719159353
H          -2.89017354549774    1.93922740397389    6.83343413144641
H          -0.42347594452581    7.28942801019978   -0.87960111145409
H           0.89708908192316    8.46275694053197   -0.92974877513496
H           1.12119246116926    6.84429714426211   -1.60347540858581
H           6.90527129682348   -8.21537647254260   11.02241396412624
H           5.15795394245095   -8.03860875863704   10.83427255467100
H           6.15752724504415   -8.42992857916120    9.42962234523224
H          -7.55179687895543   -4.27807950669239   -4.90694472723230
H          -8.74170361016880   -5.52962069146299   -4.52932355169690
H          -8.89923391716080   -4.58000098424692   -6.01047779910817
H           5.32709679822719   -0.40923550540570    8.59914407995803
H           3.46546971451372    1.10102237189086    9.13110411142904
H           1.34714911526097    0.95149113167799    7.88299160677468
H           1.09890313426230   -0.71608538841389    6.07065990561551
H           2.96150945391485   -2.24658436197232    5.55373957751432
H           8.19019518661548   -2.74691927542525    9.40786041859671
H           8.00375707436359   -2.82867392912996   11.87166238786138
H           5.78638255793873   -3.05652387939093   12.92709412318916
H           3.76503719196940   -3.22241240360680   11.52125627959372
H           3.95260970703672   -3.15210193215639    9.07138647671145
H          -2.96214014929992   -2.57289829373503   -7.15947658671809
H          -1.04570012847720   -4.00875205513991   -7.70889329935634
H           0.37334758331895   -4.92933729967046   -5.91293578074158
H          -0.12530608888850   -4.39724100026391   -3.55545147639591
H          -2.06216900289334   -2.96609201614518   -3.00319256204490
H          -6.70476768550778   -1.42201781346396   -7.31688097361297
H          -7.62191333562346   -3.10437327013651   -8.87889760689157
H          -6.93617873302185   -5.46749963443511   -8.67760549260833
H          -5.37560687768372   -6.14620547181486   -6.89207928623343
H          -4.49068527445486   -4.48026918680768   -5.32185200430969
