# ORCA input file
# SCF done       -298.183940049205          0.000401231454
! wb97x-d3 def2-SVP def2/J RIJCOSX Grid4 TightSCF
%maxcore 5000
%tddft
    Mode sTDA
    Ethresh 5.0
    maxcore 5000
end

%pal
  nprocs 6
  end
* xyz 0 1
   C        2.64740        -1.54120        -0.25831
   C        2.78666        -1.02413         1.05025
   C        1.91619        -0.06514         1.56456
   C        0.86403         0.31695         0.76659
   C        0.67288        -0.27525        -0.50292
   C        1.58458        -1.17417        -1.04860
   C        3.77299        -2.51359        -0.57973
   C        4.47588        -2.58272         0.75393
   C        3.89095        -1.70165         1.65124
   C        5.51430        -3.31407         1.31857
   C        5.70286        -3.00806         2.65799
   S        4.57619        -1.79389         3.22036
   C       -0.26669         1.28856         1.08070
   C       -1.19447         1.03118        -0.08461
   C       -0.59025         0.17293        -0.99027
   C       -2.46310         1.42925        -0.49320
   C       -2.84245         0.82774        -1.68399
   S       -1.59737        -0.22322        -2.31787
   C        6.66318        -3.56187         3.56201
   C       -4.08219         0.95391        -2.38700
   C       -0.82824         0.95919         2.44570
   C        0.15537         2.74445         0.98318
   C        3.31097        -3.89355        -0.99853
   C        4.61468        -1.86154        -1.66481
   C        7.73783        -4.34349         3.15483
   C        8.62655        -4.90416         4.06464
   C        8.47949        -4.74297         5.43207
   C        7.41580        -3.91394         5.88968
   C        6.52358        -3.32685         4.96165
   C       -5.01812         1.94744        -2.13115
   C       -6.22293         2.01609        -2.82328
   C       -6.58340         1.07175        -3.76813
   C       -5.64505         0.04623        -4.07632
   C       -4.39731         0.01185        -3.41077
   C        9.39380        -5.28247         6.40667
   C        8.99350        -5.67581         7.63426
   C       -7.81213         1.11801        -4.52361
   C       -8.51682         0.00950        -4.83305
   C       -8.43748        -1.28622        -4.14396
   N       -9.30008        -2.19172        -4.74424
   C      -10.03406        -1.75824        -5.79773
   S       -9.75364        -0.04515        -6.07488
   C        7.61808        -6.00503         8.03907
   N        7.55010        -6.10478         9.42214
   C        8.71154        -6.02337        10.11270
   S       10.07039        -5.84717         9.00836
   C        6.28652        -6.37753        10.07627
   O        6.68089        -6.26951         7.32062
   S        8.85932        -6.08034        11.73538
   C        4.21322        -4.75741        -1.60890
   C        3.82076        -6.02093        -2.00547
   C        2.51801        -6.45890        -1.80275
   C        1.62822        -5.60383        -1.16780
   C        2.01789        -4.33899        -0.76444
   C        5.72796        -1.09373        -1.35443
   C        6.45296        -0.47140        -2.35433
   C        6.08100        -0.58933        -3.68611
   C        4.96086        -1.35179        -3.99153
   C        4.23437        -1.97674        -2.99659
   C       -0.23855         1.50151         3.58177
   C       -0.69316         1.15983         4.84049
   C       -1.74063         0.26151         5.00114
   C       -2.32537        -0.27862         3.86388
   C       -1.87358         0.06028         2.60105
   C        1.35079         3.12782         0.39344
   C        1.67328         4.46789         0.27427
   C        0.81318         5.45553         0.73349
   C       -0.38762         5.06623         1.31357
   C       -0.71437         3.72995         1.43539
   O       -7.81821        -1.54482        -3.13744
   C       -9.44779        -3.53040        -4.20744
   C       -2.25533        -0.07704         6.37116
   C        1.14788         6.90910         0.55859
   C        6.89700         0.04941        -4.77297
   C        2.09915        -7.84138        -2.21353
   C        2.36380        -8.83835        -1.08367
   C        7.98745        -0.90877        -5.25640
   C       -3.31307         0.93713         6.81073
   C        0.65471         7.41043        -0.80033
   S      -11.05844        -2.67053        -6.67970
   C        6.11856        -7.86536        10.35822
   C       -8.60343        -4.54462        -4.96530
   N        7.25387        -3.67606         7.19806
   C        6.23922        -2.96239         7.62375
   C        5.35213        -2.34866         6.68688
   N        5.53288        -2.54550         5.40207
   C        6.08560        -2.91544         9.08289
   C        4.25479        -1.44656         7.05394
   C        4.39510        -0.49268         8.05961
   C        3.34938         0.36272         8.35141
   C        2.15979         0.28052         7.64543
   C        2.01857        -0.65574         6.63425
   C        3.06103        -1.51264         6.33787
   C        7.22447        -2.84153         9.88251
   C        7.11641        -2.88408        11.25925
   C        5.87046        -3.01540        11.85155
   C        4.73544        -3.10614        11.06175
   C        4.83714        -3.05783         9.68380
   N       -5.92097        -0.87242        -5.01090
   C       -5.04751        -1.80985        -5.29752
   C       -3.75872        -1.80214        -4.67918
   N       -3.49144        -0.90571        -3.75904
   C       -5.51409        -2.83086        -6.24196
   C       -2.64992        -2.69508        -5.03883
   C       -2.35398        -2.98707        -6.36848
   C       -1.27058        -3.78855        -6.67575
   C       -0.47142        -4.30292        -5.66707
   C       -0.75303        -4.00624        -4.34349
   C       -1.83390        -3.20400        -4.03028
   C       -6.41567        -2.45949        -7.23906
   C       -6.92304        -3.40233        -8.11148
   C       -6.54084        -4.72946        -7.99592
   C       -5.66069        -5.10984        -6.99589
   C       -5.15148        -4.17084        -6.11783
   H        2.06066         0.33072         2.55819
   H        1.42707        -1.58204        -2.03522
   H        6.09091        -4.05559         0.79608
   H       -3.10471         2.09068         0.06042
   H        7.89050        -4.52443         2.10210
   H        9.43609        -5.51753         3.69614
   H       -4.80476         2.69510        -1.38279
   H       -6.91801         2.80875        -2.58652
   H       10.45016        -5.26043         6.17331
   H       -8.11675         2.07253        -4.93297
   H        6.25638        -5.80298        11.00524
   H        5.50550        -6.02693         9.39821
   H        5.22680        -4.42849        -1.78917
   H        4.53369        -6.67507        -2.48757
   H        0.61275        -5.92938        -0.98857
   H        1.30584        -3.69442        -0.27050
   H        6.03509        -0.98018        -0.32515
   H        7.31998         0.11899        -2.09302
   H        4.65051        -1.45451        -5.02183
   H        3.36922        -2.56831        -3.25867
   H        0.57697         2.20308         3.47931
   H       -0.22428         1.59661         5.71100
   H       -3.14275        -0.97854         3.96641
   H       -2.33859        -0.37820         1.73001
   H        2.03668         2.37860         0.02599
   H        2.61155         4.74906        -0.18286
   H       -1.07351         5.81917         1.67595
   H       -1.64942         3.44448         1.89587
   H       -9.13015        -3.47582        -3.16286
   H      -10.50577        -3.79982        -4.26400
   H       -2.69522        -1.07644         6.36553
   H       -1.43213        -0.07130         7.08935
   H        0.67802         7.49600         1.35053
   H        2.22871         7.05080         0.62349
   H        6.25184         0.31369        -5.61332
   H        7.36201         0.96355        -4.39821
   H        1.03479        -7.84910        -2.45816
   H        2.65604        -8.14857        -3.10140
   H        1.80805        -8.55571        -0.19240
   H        2.06076        -9.83999        -1.37993
   H        3.42238        -8.85479        -0.83409
   H        7.54249        -1.82153        -5.64647
   H        8.58003        -0.44710        -6.04287
   H        8.64810        -1.17491        -4.43420
   H       -4.14962         0.93546         6.11547
   H       -3.68569         0.69427         7.80325
   H       -2.89017         1.93923         6.83343
   H       -0.42348         7.28943        -0.87960
   H        0.89709         8.46276        -0.92975
   H        1.12119         6.84430        -1.60348
   H        6.90527        -8.21538        11.02241
   H        5.15795        -8.03861        10.83427
   H        6.15753        -8.42993         9.42962
   H       -7.55180        -4.27808        -4.90694
   H       -8.74170        -5.52962        -4.52932
   H       -8.89923        -4.58000        -6.01048
   H        5.32710        -0.40924         8.59914
   H        3.46547         1.10102         9.13110
   H        1.34715         0.95149         7.88299
   H        1.09890        -0.71609         6.07066
   H        2.96151        -2.24658         5.55374
   H        8.19020        -2.74692         9.40786
   H        8.00376        -2.82867        11.87166
   H        5.78638        -3.05652        12.92709
   H        3.76504        -3.22241        11.52126
   H        3.95261        -3.15210         9.07139
   H       -2.96214        -2.57290        -7.15948
   H       -1.04570        -4.00875        -7.70889
   H        0.37335        -4.92934        -5.91294
   H       -0.12531        -4.39724        -3.55545
   H       -2.06217        -2.96609        -3.00319
   H       -6.70477        -1.42202        -7.31688
   H       -7.62191        -3.10437        -8.87890
   H       -6.93618        -5.46750        -8.67761
   H       -5.37561        -6.14621        -6.89208
   H       -4.49069        -4.48027        -5.32185
*
