98
 SCF done       -182.809778830911          0.000308361972
C          -4.33822779770709    1.47897343550383    0.19004943461218
C          -3.10491138127076    1.99267194526571   -0.25728571508016
C          -1.97518780128212    1.19639838913378   -0.11098117382452
C          -2.01802436476134   -0.11775598144146    0.43835894031231
C          -3.24656636407270   -0.61982890561154    0.91018660875962
C          -4.37799345821554    0.16960787953344    0.74820629846373
S          -0.34672261771692    1.71068605936616   -0.53951206624642
C           0.26445684440347    0.16643536381835   -0.08206722295269
C          -0.71858553305079   -0.71220288666978    0.41628741358272
C           1.48375271572708   -0.49952102453664   -0.09853658814479
C           1.20648644972580   -1.79968828210967    0.39346074507130
N          -0.12701877265265   -1.92077972265958    0.69138313196089
S           3.13397680100331   -0.28662832367975   -0.53299124638364
C           3.46193071381067   -1.95861648462876   -0.06733459532964
C           2.32232310353475   -2.61558179238430    0.41180375480901
S          -6.00892844421962   -0.37131351624115    1.13288469844642
C          -6.63630372130314    1.14321669178461    0.60145814394810
C          -5.65038379072436    2.04606565737073    0.14861432635286
C          -7.87287619678684    1.76329918013140    0.49286675206797
C          -7.60903042706268    3.05782323516131   -0.01960270982505
N          -6.26112981420729    3.22196116221500   -0.20473621219244
S          -9.54884138428436    1.50933032811350    0.75414157915339
C          -9.89915365643987    3.14370559418818    0.14694438358035
C          -8.74531371686335    3.83079344544235   -0.20773744767255
O          -3.23457530041229   -1.87004797280793    1.45148991134946
O          -3.12194645644834    3.25359310592064   -0.76952668873197
C          -2.30799779466377    3.61865778421132   -1.87711549681073
C          -2.44836965390157    2.68157031616004   -3.06816467200493
C          -4.02188293810785   -2.18097789060933    2.59474511783465
C          -3.84720283078042   -1.19208613698119    3.73841916281906
C          -5.73081699679438    4.47954029213683   -0.67764298502310
C          -5.89578082005057    4.61750968817432   -2.18858397425485
C          -0.66585825509588   -3.15243120468803    1.21619884773731
C          -0.44932444826449   -3.25074349824542    2.72419777338172
C           4.68944861119786   -2.62434957005568   -0.17111362303370
C           5.90818654992470   -2.19657413341070   -0.63808783955183
C           6.21751719693597   -0.84681043009345   -1.11918055169201
C           7.64344680473593   -0.87100750604600   -1.50741637026064
C           8.16665720685487   -2.15568898050440   -1.27983904707021
C           7.10566990174626   -3.00665815980647   -0.73922016272825
C           8.40929957771275    0.15596560650384   -2.01917383595251
C           9.73478941645685   -0.13680360980582   -2.30391609490410
C          10.28003600635560   -1.39371001019711   -2.09034786364663
C           9.49720827488328   -2.41608106874345   -1.57467292075171
C         -11.25347948905061    3.50828969318334    0.12330449275889
C         -11.89176618224630    4.60776768876183   -0.39765002905824
C         -11.33551306132860    5.68087131516604   -1.24433664923993
C         -12.50215022690486    6.45000947772930   -1.73054056746369
C         -13.68176392841030    5.92692325275079   -1.17729714546114
C         -13.32682886035483    4.81548236941940   -0.29684230958908
C         -12.50938003827040    7.52308415784522   -2.59831730810427
C         -13.74670563241067    8.06619569371646   -2.90843024161425
C         -14.92930581043023    7.56726397875990   -2.38327248872386
C         -14.90549127505405    6.49071183813810   -1.50937718612033
O         -10.17791140407497    5.91803669220956   -1.52936473647503
F         -13.80603439772119    9.11237108867689   -3.75011502544410
C         -14.20548986736515    4.15495158547901    0.52190107111872
C         -15.59130313273693    4.41717183758698    0.56757084725699
C         -13.87630612669327    3.15799147210185    1.46553176149895
N         -16.72576630088813    4.57122100987656    0.65212926933871
N         -13.70254544270834    2.36173586208923    2.27501165755906
O           5.47147882200063    0.11178129173175   -1.18933188399676
F          10.52181089961171    0.82996305279556   -2.80513164397676
C           7.24893786843315   -4.33137330366065   -0.41325164158245
C           8.45058482035349   -5.05706684242395   -0.55497381841405
C           6.23978898399091   -5.17184661834654    0.10061557270100
N           5.48009116532299   -5.92634701315640    0.51823793489044
N           9.39174413016090   -5.70863517319661   -0.64346085639066
H           2.35250188935962   -3.63966203404576    0.73858684547492
H          -8.77196454872166    4.83344954813683   -0.59048339689794
H          -2.67594754350639    4.61525961149266   -2.13684158797248
H          -1.25784899765900    3.70932844415491   -1.58119479381725
H          -3.49453179026832    2.57104362909229   -3.34487327041137
H          -1.90333271380273    3.09311730409528   -3.91231603636353
H          -2.04516408364587    1.69783574781975   -2.84200232469527
H          -3.65396376051209   -3.16795373287736    2.88874932705032
H          -5.08014487879240   -2.27678842436633    2.33005631830907
H          -4.25319679202742   -0.21785877711544    3.47779645843646
H          -4.37109372264938   -1.56222921584293    4.61453784871762
H          -2.79366730028473   -1.07310278690357    3.98228378245263
H          -6.28456443468011    5.27740800427043   -0.17386162034317
H          -4.68237772942956    4.54408646785811   -0.39695575173269
H          -6.94742571194602    4.58624192626035   -2.46280844369770
H          -5.47972264339200    5.56470227568920   -2.51945147412392
H          -5.37890627145175    3.80991125582023   -2.69979748774409
H          -1.72592058590874   -3.20319409652037    0.97855066768331
H          -0.14964547924564   -3.97499455352094    0.71275926622262
H          -0.96246139094963   -2.43784973658010    3.23046321009174
H          -0.83804213876654   -4.19506050906882    3.09445715742573
H           0.61039223137073   -3.19212042123452    2.96228053743598
H           4.63861111311784   -3.65205025224066    0.16761629692027
H           7.99714595379540    1.13761396537345   -2.18976105093479
H          11.31772661642879   -1.56397766839750   -2.33030532830721
H           9.93397846519699   -3.38752217651702   -1.41342846662815
H         -11.89704728291228    2.76257648219271    0.57553743772297
H         -11.59712605406512    7.91905395483024   -3.01504573421698
H         -15.86381551881843    8.02707921669494   -2.66363308751388
H         -15.83143184681096    6.11057407617756   -1.11126429417884
