81
 SCF done       -145.257422313669          0.000427119064
C          -0.56154458764636   -0.90240345548993    0.48745001260050
C           5.70325976994280    3.59729983911696    0.16288558493478
C           5.85962208599864    5.00851325645437    0.26802777500755
C           7.16281429058004    5.60783718349904    0.15864655603196
C           8.33021458019887    4.82462203363327   -0.06226312302495
C           8.12788554789561    3.45025922623686   -0.15183768059283
C           6.87299093084512    2.86891697552303   -0.04198625457719
N           4.91256565019299    5.92337030180693    0.46885040801171
S           5.59199892219284    7.38186419418876    0.51550257117210
N           7.11511166908718    6.93107748481769    0.28337600703945
C          -1.48870123315075   -1.98560897273374    0.51164293582022
C          -2.89169439546558   -1.77413931643802    0.63006233748249
C          -3.79676555768521   -2.89159832224500    0.66418324492719
C          -3.33101102383753   -4.23409653048142    0.58891506497760
C          -1.95340304314526   -4.38998232370263    0.46396981702369
C          -1.07824754152378   -3.31404276740771    0.42535314127400
N          -3.53925429413218   -0.61343149066656    0.71683935204505
S          -5.11943866282655   -0.90032632339866    0.82842640192413
N          -5.06409488046140   -2.50354882381781    0.77429306078421
C          -0.82918614004092    0.45344552304616    0.60626807745655
C           0.31877182477430    1.22803673716368    0.54960254784498
C           1.47887501268677    0.46677826663287    0.38224992537764
S           1.15896747271977   -1.21316716933811    0.29877105637051
C           0.65178305057655    2.69798560954524    0.62237850334146
C           2.15233463808997    2.65073038753034    0.46943506681533
C           2.59288657560432    1.33151344058042    0.33123138655165
C           3.18844572654662    3.57058798092387    0.42946023512864
C           4.42656178856335    2.96904239692953    0.25797492762169
S           4.29137833741851    1.21923322786853    0.14763433177068
C           0.23952884416438    3.30672332584212    1.97563005671501
C          -0.01062796152684    3.48660307700686   -0.52248187121850
C           0.83703072843288    2.57195318273173    3.16929400387195
C           0.34529713062984    2.94916315214184   -1.90312059244019
C          -4.29009266617611   -5.28608883921662    0.65182216511775
C          -4.11334293166306   -6.62912900869224    0.64201853849792
C          -5.26085576562622   -7.53899413989081    0.73504227878878
N          -4.83414309444835   -8.85797763665706    0.72512395786218
C          -3.50187790460382   -9.08011084774972    0.62734115777051
S          -2.63077900242929   -7.55034997838382    0.54208584584631
S          -2.77305683590539  -10.53837808205851    0.60321061770916
C          -5.79486885746002   -9.94262162516523    0.78706718668817
C          -6.11953848827500  -10.47203284918918   -0.60386055633978
O          -6.42329095239904   -7.21624501961583    0.82171061582233
C           9.58271675215031    5.49463976365954   -0.17593124771477
C          10.81782103722953    4.99717169861724   -0.42567446263485
C          11.98192265848827    5.88568271730288   -0.51919789479531
N          13.12490307555477    5.15643506219459   -0.80870439254732
C          12.99044147964440    3.81540673816492   -0.94024556546624
S          11.31030439862783    3.34182650808908   -0.69781220197398
S          14.18626438401491    2.76174453403466   -1.28412595766510
C          14.40887447966969    5.81892542872908   -0.93445934812561
C          15.19946287678779    5.74461348930310    0.36541715884656
O          11.97670472568902    7.08709504827942   -0.37989075243874
H           8.97459643004995    2.80207186360517   -0.31192959010494
H           6.79670849696427    1.79426128740457   -0.12340356145881
H          -1.53947370481281   -5.38320267951415    0.39378430280572
H          -0.02120312622734   -3.51568794404806    0.32872270060318
H          -1.83117827662753    0.82065715769918    0.72826393270311
H           3.08803655633257    4.63651970419920    0.51601126897917
H           0.56027153898948    4.35007405887336    1.99403381901547
H          -0.84976800215885    3.28506537116872    2.04468639141164
H          -1.09295081104917    3.44598204418090   -0.38564926883393
H           0.30232371885418    4.52975825111749   -0.44718021981992
H           1.92373945683819    2.58736508377840    3.12816865324208
H           0.52282455763482    3.04930610555386    4.09416810367246
H           0.50743490058553    1.53570487540646    3.18988767666768
H           0.02763691793558    1.91428973813732   -2.00826627349572
H          -0.15051877803986    3.53894378019315   -2.67015863044396
H           1.41844490977126    2.99949990734492   -2.07266538801700
H          -5.32274520993496   -4.96335445416769    0.72953041796498
H          -5.37130902634085  -10.73542631381973    1.40832492411943
H          -6.69117968577644   -9.53295883900766    1.25875493926477
H          -5.22414020406703  -10.86895506440378   -1.07641240764002
H          -6.85420289282450  -11.26789243044855   -0.52617426228217
H          -6.52775345225612   -9.67733635587360   -1.22399156347856
H           9.54178943388182    6.57159656564839   -0.05321763459372
H          14.96073635699092    5.33654020179405   -1.74480668233292
H          14.19435483397451    6.85872330549749   -1.19208759928383
H          15.40075119209161    4.70854516053258    0.62724213033118
H          16.14583197016316    6.26312047930185    0.24398624905229
H          14.64292727447810    6.21490487055800    1.17271556063857
