57
 SCF done       -107.467171967107          0.000953309913
C          -1.36868931277946   -0.74101077336834    0.02775697094328
C          -1.36942957063142    0.61865822061870   -0.25463334587563
C          -0.22557111666903    1.40549235385553   -0.19568457762056
C           0.97391483754860    0.73505877004231    0.16837298262898
C           0.97613840561806   -0.67804207133414    0.45444015188956
C          -0.22286033170155   -1.43926130145796    0.38880404601072
N           2.19032489793436    1.26359660871814    0.28809675343545
S           3.22754956386129    0.11379428169267    0.71356061149249
N           2.19422636044778   -1.11429488783075    0.76964257389402
C          -0.25573072698571    2.80712714523089   -0.48518974035979
C          -0.25111852308822   -2.84013273617958    0.68231790505604
S          -1.74822040663685   -3.72557521935643    0.65441290437266
C          -0.93852173612048   -5.20092962053760    1.09584696698272
C           0.42370225311904   -4.98327232196238    1.24502053342331
C           0.80537906308557   -3.66881285445686    1.01664816813360
C           0.77992700137006    3.72217902932657   -0.41688947362252
C           0.40056170760748    5.01072899296524   -0.76571807154833
C          -0.93754696623558    5.12094983029171   -1.11605183279591
S          -1.72927592046563    3.57636343638224   -0.99706561466467
C          -1.59722606352386    6.29738983601794   -1.52484033252985
C          -2.89500757377000    6.43673392286249   -1.89657582601257
S          -4.11365690026454    5.19090905538323   -1.96845860395414
C          -5.32324274982111    6.34202824762438   -2.54185574047139
N          -4.78628774612850    7.58153375502926   -2.64848219291608
C          -3.44987040788701    7.72533419245599   -2.31382435989919
O          -2.85465771662693    8.77802203913769   -2.36355479791023
C          -5.54996360499189    8.71522177128778   -3.13317558165240
C          -5.57258934192396    8.75179820638703   -4.65557998817911
S          -6.86621925144184    5.93818399925190   -2.87610884362869
C          -1.60766081307760   -6.42791668320691    1.27683218639399
C          -2.93561807139720   -6.67999417748622    1.15694401038184
C          -3.49557603028545   -8.01158946941101    1.39297065448596
N          -4.86978066961695   -7.98700014309065    1.22071107292280
C          -5.43080924376931   -6.80344487643437    0.87315949472353
S          -4.19478357703924   -5.54951611160842    0.73479466264111
S          -7.01911766145238   -6.53693215311346    0.62404725033572
C          -5.65361434064714   -9.19701153591726    1.37952372510260
C          -5.90842418176519   -9.86996708457213    0.03683420498246
O          -2.87559746334390   -9.00309517253229    1.70377767783351
H          -2.30144292301776   -1.28216241820087   -0.03562528101451
H          -2.30261970188386    1.08849216852084   -0.52895675945559
H           1.10453116724426   -5.77058633053428    1.51554205935131
H           1.81339580037208   -3.30424150019377    1.08596684967579
H           1.77168317374028    3.43665971808553   -0.11928591235353
H           1.06681571776901    5.85470510046917   -0.77105350424418
H          -1.00228138719300    7.20302676446061   -1.55397051329163
H          -6.56478533922706    8.63441215733120   -2.73756175595522
H          -5.06145027912427    9.60816927170693   -2.73700672532524
H          -6.04633168401029    7.85543061933571   -5.04827449799909
H          -6.13531409890773    9.61822373923381   -4.98944625026757
H          -4.55996463188408    8.81947999923204   -5.04600846974237
H          -0.99438550120204   -7.27845475767955    1.55123309532285
H          -5.07461425163729   -9.85462147838754    2.03233336602776
H          -6.59860710109890   -8.92845012240917    1.85782188844039
H          -4.96583348033205  -10.12446124360273   -0.44226974188960
H          -6.47986929491531  -10.78042127997117    0.19068501336710
H          -6.47371225518065   -9.20939490807164   -0.61615944508735
