# ORCA input file
# SCF done       -212.275230314889          0.000508249392
! wb97x-d3 def2-SVP def2/J RIJCOSX Grid4 TightSCF
%maxcore 5000
%tddft
    Mode sTDA
    Ethresh 5.0
    maxcore 5000
end

%pal
  nprocs 6
  end
* xyz 0 1
   C        3.16104        -0.86441        -9.96672
   O        1.99840        -1.04805        -9.65661
   C        4.02244        -1.80499       -10.71411
   C        3.70720        -3.06021       -11.19396
   C        4.69936        -3.75909       -11.86294
   C        5.96587        -3.20161       -12.03775
   C        6.28060        -1.93891       -11.55660
   C        5.29397        -1.23311       -10.88656
   C        5.30265         0.09324       -10.26477
   C        6.37340         0.94996       -10.25691
   C        6.40161         2.23187        -9.66903
   N        6.50919         3.28303        -9.21819
   C        7.62050         0.66307       -10.85216
   N        8.65700         0.49338       -11.31492
   C        3.99247         0.30753        -9.68695
   C        3.59936         1.41802        -8.97563
   C      -10.50411         9.48604         2.06599
   O       -9.55136         9.16388         1.37941
   C      -10.53073        10.58043         3.05900
   C       -9.51020        11.43751         3.41848
   C       -9.78297        12.38902         4.38833
   C      -11.04785        12.46645         4.97099
   C      -12.07295        11.60468         4.60799
   C      -11.80838        10.64978         3.63915
   C      -12.65215         9.60923         3.04662
   C      -13.96896         9.39249         3.36100
   C      -14.80121         8.40246         2.79745
   N      -15.54559         7.62769         2.39092
   C      -14.69094        10.14940         4.30854
   N      -15.33467        10.72383         5.06535
   C      -11.83947         8.88776         2.08938
   C      -12.24669         7.80605         1.34244
   C      -11.55522         7.03199         0.40746
   S       -9.89126         7.25409        -0.12177
   C      -10.04406         5.89676        -1.14825
   C      -11.31200         5.28607        -1.09543
   C      -12.15816         5.93100        -0.22904
   C       -9.23806         5.15835        -2.03801
   C       -9.96958         4.07982        -2.55128
   C      -11.38348         4.09562        -2.02457
   S       -7.61984         5.19187        -2.60226
   C       -7.91196         3.72588        -3.51669
   C       -9.21418         3.26247        -3.37641
   C       -6.87790         3.12947        -4.27520
   C       -3.30848         2.62656        -5.84581
   S       -2.64978         1.31354        -6.79780
   C       -1.14351         2.13265        -6.85553
   C       -1.15566         3.36079        -6.18312
   C       -2.38129         3.63625        -5.60627
   C        0.13723         1.92465        -7.41075
   C        0.95069         3.03102        -7.09137
   C        0.19607         4.03230        -6.24893
   S        0.92409         0.73913        -8.35441
   C        2.38222         1.72388        -8.36189
   C        2.20298         2.92033        -7.64212
   C        0.75580         4.12175        -4.81170
   C        2.18828         4.62648        -4.70691
   C        0.12238         5.41283        -6.92042
   C       -0.55991         5.36748        -8.28271
   C      -12.40598         4.41499        -3.13854
   C      -12.51603         3.35985        -4.23073
   C      -11.73272         2.79546        -1.28395
   C      -10.82257         2.53675        -0.08897
   F      -11.28369        13.39373         5.90579
   F       -8.82353        13.24074         4.76986
   F        4.44057        -4.98088       -12.34450
   F        6.90596        -3.89951       -12.68495
   S       -5.29425         3.88329        -4.38408
   C       -4.64631         2.59992        -5.39354
   C       -5.63179         1.66519        -5.61106
   C       -6.87425         1.95497        -4.99882
   C       -5.74781         0.39567        -6.32801
   N       -7.05762        -0.01545        -6.11096
   C       -7.80050         0.86394        -5.33456
   C       -7.60908        -1.22591        -6.68162
   C       -8.14955        -0.97832        -8.08541
   O       -8.96047         0.69599        -5.03527
   O       -4.92427        -0.21331        -6.96978
   H        2.72660        -3.48665       -11.05503
   H        7.27449        -1.55579       -11.71858
   H        4.34345         2.19456        -8.84676
   H       -8.53398        11.37289         2.96514
   H      -13.03095        11.70755         5.09023
   H      -13.26659         7.47339         1.49264
   H      -13.17517         5.64856        -0.02178
   H       -9.54983         2.35912        -3.85308
   H       -2.62804         4.51658        -5.03950
   H        2.99044         3.64905        -7.56655
   H        0.09755         4.77903        -4.23978
   H        0.69827         3.12548        -4.36631
   H        2.28786         5.62779        -5.11606
   H        2.48149         4.66022        -3.66024
   H        2.87242         3.96265        -5.22738
   H       -0.42349         6.09078        -6.26150
   H        1.13506         5.79714        -7.04340
   H       -1.58826         5.02582        -8.19117
   H       -0.56659         6.35937        -8.72773
   H       -0.03303         4.69408        -8.95484
   H      -13.38095         4.55049        -2.66600
   H      -12.12179         5.36842        -3.59128
   H      -12.86544         2.41200        -3.83206
   H      -13.23005         3.69327        -4.98037
   H      -11.55946         3.20190        -4.71997
   H      -12.76950         2.85444        -0.94789
   H      -11.64364         1.96379        -1.98273
   H      -10.90603         3.33455         0.64554
   H      -11.09745         1.60046         0.39008
   H       -9.78413         2.46676        -0.40489
   H       -6.80881        -1.96926        -6.70879
   H       -8.40864        -1.56268        -6.01765
   H       -7.35044        -0.63822        -8.73993
   H       -8.56294        -1.89867        -8.48738
   H       -8.93306        -0.22432        -8.05959
*
