152
 SCF done       -258.037527730526          0.000763444867
C          -2.18839127837881   -0.06827937015597   -1.48816239719095
C          -7.40301220968893    0.62862328574228   -1.65472850797970
C          -7.69054564742193    1.86427941669623   -2.28436957588579
C          -8.98633653793298    2.22099226546758   -2.56682358811079
C          -9.98882754289707    1.31626435697429   -2.21994552899559
C          -9.70324953583611    0.08593852818338   -1.57979776044592
C          -8.40631183419744   -0.26617714974265   -1.28920776805107
C         -11.39888944685377    1.35960526672251   -2.41853681112412
C         -12.00889947085832    0.21689507360771   -1.90809826901445
C         -10.97194626259247   -0.70743702206609   -1.33516486177696
C          -5.98187992955579    0.53881239846994   -1.55963194667751
C          -5.37461502983049    1.66122352273676   -2.09990547220989
C          -6.41619956387280    2.64543549384279   -2.55618229926121
S         -12.51035542123211    2.43334298203519   -3.14802072364704
C         -13.83408470128349    1.33413185539132   -2.77221787123872
C         -13.38174043806086    0.21594408533551   -2.07576545492381
S          -4.84673527296299   -0.64133317320866   -1.03655867905946
C          -3.53200146382194    0.37818413234870   -1.58316077739559
C          -3.98527099471511    1.56811008578572   -2.12195041048981
C         -10.94876441439537   -2.04511668422259   -2.10115230943176
C         -11.19925373869703   -0.96753989355311    0.16489426919280
C          -6.43854850150297    3.90711781801197   -1.66357406092063
C          -6.26047414391257    3.00255857000837   -4.04215180848979
C         -15.17114062013936    1.62214199695067   -3.09950389233967
C         -15.65395192329484    2.48053419800021   -4.04858968149004
C         -17.02525454466291    3.02638621281150   -3.92965975948538
C         -17.07122332550755    4.15694808233441   -4.88929473331569
C         -15.86834320748236    4.20375754538263   -5.61608234626246
C         -15.03222630894612    3.07477197251884   -5.20800390893450
C         -18.08145457892513    5.07541086988879   -5.09378653627156
C         -17.86918456987830    6.06590660362077   -6.03994363767202
C         -16.67364207862239    6.12434570710726   -6.75619556041640
C         -15.66230391092576    5.19535438822876   -6.56046549539264
O         -17.89979671080978    2.65881154948088   -3.17914365918424
C         -14.03238466087746    2.52010760310689   -5.96618694461575
C         -13.47697340861142    1.25173391754108   -5.69999881802827
C         -13.51711165983000    3.10550130623394   -7.13894369296965
N         -13.04856721211300    3.55204314169498   -8.08693623747109
N         -13.04046909427730    0.20064993535501   -5.54776061100580
F         -16.49258857912140    7.10117947354738   -7.65292677352222
F         -18.82163376083242    6.97951486169325   -6.26732825186324
C         -11.25179162605484    0.31449491895839    0.98721103179439
C         -10.72549994717669   -1.87345160386759   -3.59907879910173
C          -6.34756418470088    1.78134350969525   -4.95029611507024
C          -5.14304538840360    4.70732495604419   -1.64938364573373
C           7.20687240775637   -2.71103016329190   -2.14869395988149
C           7.51471323468347   -3.96187977485428   -1.55529430418435
C           8.80026837704496   -4.44634161307268   -1.59276099356614
C           9.75257327874411   -3.69204624761631   -2.27800356372092
C           9.43622236023455   -2.45840268508906   -2.89522721632604
C           8.16044585497228   -1.95138741204705   -2.82225068506984
C          11.13188569278333   -3.94252663335029   -2.53440148202657
C          11.68864439613718   -2.91115870609729   -3.29222833928308
C          10.65122116530131   -1.86178717221789   -3.57821455232860
C           5.82646502188814   -2.45907838122085   -1.89085209646064
C           5.26187491150876   -3.49428186242545   -1.16630577291963
C           6.27960794470566   -4.57797897341979   -0.92310403536651
S          12.24897188859561   -5.18454123503992   -2.19293095592598
C          13.51157763789257   -4.30786744893430   -3.05219300483225
C          13.02323224634883   -3.11066388780415   -3.58150749664377
S           4.69765721290343   -1.21380694163627   -2.25116222907751
C           3.43943811904612   -2.11248284512474   -1.42738105444998
C           3.90731701260422   -3.30432267713431   -0.90591748519001
C          10.41957478751286   -1.68891156222378   -5.09086334607356
C          11.03507156871448   -0.50604477056707   -2.95400827629859
C           6.47582764059784   -4.86726987704078    0.57238583372588
C           5.79685190894392   -5.83109939633357   -1.69148281124678
C          14.76693843292403   -4.91615307576550   -3.18175160662438
C          15.95431542926500   -4.40594155169208   -3.64209995160567
C          16.98334792274841   -5.34700089808080   -4.14299951435374
C          17.96116903226316   -4.50091850952631   -4.86867279827430
C          17.61025845198196   -3.14857252277885   -4.71502260355151
C          16.44033408529607   -3.06512426830733   -3.83713978670559
C          19.05394293317602   -4.89127315791912   -5.61589504090864
C          19.80042010824035   -3.89832836922779   -6.23128558143382
C          19.45134289768259   -2.55534792670278   -6.09286181743116
C          18.36009591425314   -2.16128907033685   -5.33182637493566
O          16.99665227740421   -6.55061355126905   -4.02203725674713
C          16.06232734451701   -1.94448885653236   -3.13845990081405
C          15.13196285320994   -1.97138898585930   -2.08255776380330
C          16.61471699857830   -0.66461160231066   -3.33918018588901
N          17.00779054468359    0.40406758209315   -3.48566160710361
N          14.40964104116810   -1.96247296288937   -1.18972433654516
F          20.86606809945490   -4.23255708993481   -6.97030481842846
F          20.18160674109352   -1.61947564146228   -6.71109899450577
C           6.79982220921025   -3.60991613311454    1.37099573173756
C           6.75868063815524   -7.01114115410444   -1.71564852312435
C          10.03264106466775   -2.98820540367574   -5.78707480633057
C          11.29969484244331   -0.59123070312884   -1.45599490986871
C          -1.72295045217302   -1.25012569161390   -0.95715568975584
C          -0.33776735831675   -1.36770796984885   -1.09240284893046
C           0.27092833404383   -0.28154294464193   -1.72608369192670
S          -0.89398573494153    0.92075299904019   -2.15162088097058
S           0.82649862980508   -2.57707321385434   -0.68256438770781
C           2.11307977644311   -1.60931389298871   -1.39062173260988
C           1.65049952270990   -0.41498073185420   -1.89542193837521
H          -9.23449011070794    3.15100696706147   -3.05531519086907
H          -8.15780882931947   -1.20157805945238   -0.81129270294391
H         -14.04924199080075   -0.56570448500428   -1.76033767564345
H          -3.31185629025582    2.30335873593017   -2.52493134413972
H         -10.15451723890974   -2.66727880350163   -1.68328522755005
H         -11.89909064208913   -2.55530889814365   -1.93185407936268
H         -12.13644838121508   -1.51495421725731    0.28416656870929
H         -10.39099374245937   -1.60185914833382    0.53361365283727
H          -7.25541090039030    4.54606275884458   -2.00523002179419
H          -6.66985904200054    3.59202001737312   -0.64251669088985
H          -7.04059563229688    3.71558782705794   -4.31537266257561
H          -5.29359460201296    3.48534207763818   -4.18877593519357
H         -15.92393523271557    1.15754479960165   -2.46949313231565
H         -19.00598801175249    5.02961739270136   -4.54076945971971
H         -14.75389531471672    5.27880055158296   -7.13469031452897
H         -12.07055754265123    0.95097710600503    0.65893688461659
H         -11.40247215631450    0.07801661797654    2.03769134228903
H         -10.32300569640370    0.87244165675132    0.88935552861254
H          -9.77754268128850   -1.37569747517086   -3.79238542578335
H         -10.70516566821773   -2.84706881644448   -4.08238631465065
H         -11.52061225232198   -1.28615267060105   -4.05166163925320
H          -7.31006747511090    1.28619703423332   -4.84262821149957
H          -6.22998793341396    2.08031241842684   -5.98899287729174
H          -5.56447529840381    1.06587442129436   -4.70890328320948
H          -4.88843665482867    5.06748381069890   -2.64231711160203
H          -5.25898372683395    5.57030912882706   -0.99750464863009
H          -4.32080405673081    4.10605836205763   -1.27122033706031
H           9.08726223337463   -5.36847036474703   -1.11241934345231
H           7.89089618073820   -1.00466448195086   -3.26513834610731
H          13.62082489929710   -2.45931873787780   -4.19354739200382
H           3.27145272720180   -3.98294861565926   -0.36577561127821
H           9.62939641444875   -0.95038084074535   -5.23803503650985
H          11.33395091396089   -1.29397718489703   -5.53850615671911
H          11.92887837313279   -0.13216534247877   -3.45781858078149
H          10.22352788726616    0.19994814172000   -3.14269062878695
H           5.56276894587757   -5.32179249608397    0.96256786521422
H           7.28936525446707   -5.58330658865519    0.69210126946984
H           4.85421980236061   -6.14723746206127   -1.23883127917249
H           5.58407879021307   -5.53160535539557   -2.72117054513756
H          14.79735520898614   -5.98126652760224   -2.97051795437324
H          19.32282879853890   -5.93012170759076   -5.72152809871373
H          18.12833936454381   -1.11142874608405   -5.25440991944260
H           5.98699021125522   -2.89012120214433    1.30620846740967
H           6.95205652826459   -3.86120247650493    2.41784355131445
H           7.70569291422904   -3.13934175457936    0.99488538951984
H           7.01722472637276   -7.33435249256982   -0.71107677918084
H           6.28509476901394   -7.84700208638327   -2.22600615342825
H           7.66856991149476   -6.76126318736330   -2.25392689454548
H           9.11740995796596   -3.39448376195626   -5.36209274845140
H           9.86954888390967   -2.80840926977909   -6.84693929661321
H          10.81911981227970   -3.73262926617285   -5.68363370838381
H          12.15637304261638   -1.22805840170120   -1.24827293437426
H          11.51332547794975    0.39970083310884   -1.06303232816029
H          10.43274106325726   -0.98924546528873   -0.93280507383460
H          -2.36265478612521   -1.98622697585758   -0.50586576286960
H           2.28615622635262    0.31172128121863   -2.36718353455600
