# ORCA input file
# SCF done       -258.037527730526          0.000763444867
! wb97x-d3 def2-SVP def2/J RIJCOSX Grid4 TightSCF
%maxcore 5000
%tddft
    Mode sTDA
    Ethresh 5.0
    maxcore 5000
end

%pal
  nprocs 6
  end
* xyz 0 1
   C       -2.18839        -0.06828        -1.48816
   C       -7.40301         0.62862        -1.65473
   C       -7.69055         1.86428        -2.28437
   C       -8.98634         2.22099        -2.56682
   C       -9.98883         1.31626        -2.21995
   C       -9.70325         0.08594        -1.57980
   C       -8.40631        -0.26618        -1.28921
   C      -11.39889         1.35961        -2.41854
   C      -12.00890         0.21690        -1.90810
   C      -10.97195        -0.70744        -1.33516
   C       -5.98188         0.53881        -1.55963
   C       -5.37462         1.66122        -2.09991
   C       -6.41620         2.64544        -2.55618
   S      -12.51036         2.43334        -3.14802
   C      -13.83408         1.33413        -2.77222
   C      -13.38174         0.21594        -2.07577
   S       -4.84674        -0.64133        -1.03656
   C       -3.53200         0.37818        -1.58316
   C       -3.98527         1.56811        -2.12195
   C      -10.94876        -2.04512        -2.10115
   C      -11.19925        -0.96754         0.16489
   C       -6.43855         3.90712        -1.66357
   C       -6.26047         3.00256        -4.04215
   C      -15.17114         1.62214        -3.09950
   C      -15.65395         2.48053        -4.04859
   C      -17.02525         3.02639        -3.92966
   C      -17.07122         4.15695        -4.88929
   C      -15.86834         4.20376        -5.61608
   C      -15.03223         3.07477        -5.20800
   C      -18.08145         5.07541        -5.09379
   C      -17.86918         6.06591        -6.03994
   C      -16.67364         6.12435        -6.75620
   C      -15.66230         5.19535        -6.56047
   O      -17.89980         2.65881        -3.17914
   C      -14.03238         2.52011        -5.96619
   C      -13.47697         1.25173        -5.70000
   C      -13.51711         3.10550        -7.13894
   N      -13.04857         3.55204        -8.08694
   N      -13.04047         0.20065        -5.54776
   F      -16.49259         7.10118        -7.65293
   F      -18.82163         6.97951        -6.26733
   C      -11.25179         0.31449         0.98721
   C      -10.72550        -1.87345        -3.59908
   C       -6.34756         1.78134        -4.95030
   C       -5.14305         4.70732        -1.64938
   C        7.20687        -2.71103        -2.14869
   C        7.51471        -3.96188        -1.55529
   C        8.80027        -4.44634        -1.59276
   C        9.75257        -3.69205        -2.27800
   C        9.43622        -2.45840        -2.89523
   C        8.16045        -1.95139        -2.82225
   C       11.13189        -3.94253        -2.53440
   C       11.68864        -2.91116        -3.29223
   C       10.65122        -1.86179        -3.57821
   C        5.82647        -2.45908        -1.89085
   C        5.26187        -3.49428        -1.16631
   C        6.27961        -4.57798        -0.92310
   S       12.24897        -5.18454        -2.19293
   C       13.51158        -4.30787        -3.05219
   C       13.02323        -3.11066        -3.58151
   S        4.69766        -1.21381        -2.25116
   C        3.43944        -2.11248        -1.42738
   C        3.90732        -3.30432        -0.90592
   C       10.41957        -1.68891        -5.09086
   C       11.03507        -0.50604        -2.95401
   C        6.47583        -4.86727         0.57239
   C        5.79685        -5.83110        -1.69148
   C       14.76694        -4.91615        -3.18175
   C       15.95432        -4.40594        -3.64210
   C       16.98335        -5.34700        -4.14300
   C       17.96117        -4.50092        -4.86867
   C       17.61026        -3.14857        -4.71502
   C       16.44033        -3.06512        -3.83714
   C       19.05394        -4.89127        -5.61590
   C       19.80042        -3.89833        -6.23129
   C       19.45134        -2.55535        -6.09286
   C       18.36010        -2.16129        -5.33183
   O       16.99665        -6.55061        -4.02204
   C       16.06233        -1.94449        -3.13846
   C       15.13196        -1.97139        -2.08256
   C       16.61472        -0.66461        -3.33918
   N       17.00779         0.40407        -3.48566
   N       14.40964        -1.96247        -1.18972
   F       20.86607        -4.23256        -6.97030
   F       20.18161        -1.61948        -6.71110
   C        6.79982        -3.60992         1.37100
   C        6.75868        -7.01114        -1.71565
   C       10.03264        -2.98821        -5.78707
   C       11.29969        -0.59123        -1.45599
   C       -1.72295        -1.25013        -0.95716
   C       -0.33777        -1.36771        -1.09240
   C        0.27093        -0.28154        -1.72608
   S       -0.89399         0.92075        -2.15162
   S        0.82650        -2.57707        -0.68256
   C        2.11308        -1.60931        -1.39062
   C        1.65050        -0.41498        -1.89542
   H       -9.23449         3.15101        -3.05532
   H       -8.15781        -1.20158        -0.81129
   H      -14.04924        -0.56570        -1.76034
   H       -3.31186         2.30336        -2.52493
   H      -10.15452        -2.66728        -1.68329
   H      -11.89909        -2.55531        -1.93185
   H      -12.13645        -1.51495         0.28417
   H      -10.39099        -1.60186         0.53361
   H       -7.25541         4.54606        -2.00523
   H       -6.66986         3.59202        -0.64252
   H       -7.04060         3.71559        -4.31537
   H       -5.29359         3.48534        -4.18878
   H      -15.92394         1.15754        -2.46949
   H      -19.00599         5.02962        -4.54077
   H      -14.75390         5.27880        -7.13469
   H      -12.07056         0.95098         0.65894
   H      -11.40247         0.07802         2.03769
   H      -10.32301         0.87244         0.88936
   H       -9.77754        -1.37570        -3.79239
   H      -10.70517        -2.84707        -4.08239
   H      -11.52061        -1.28615        -4.05166
   H       -7.31007         1.28620        -4.84263
   H       -6.22999         2.08031        -5.98899
   H       -5.56448         1.06587        -4.70890
   H       -4.88844         5.06748        -2.64232
   H       -5.25898         5.57031        -0.99750
   H       -4.32080         4.10606        -1.27122
   H        9.08726        -5.36847        -1.11242
   H        7.89090        -1.00466        -3.26514
   H       13.62082        -2.45932        -4.19355
   H        3.27145        -3.98295        -0.36578
   H        9.62940        -0.95038        -5.23804
   H       11.33395        -1.29398        -5.53851
   H       11.92888        -0.13217        -3.45782
   H       10.22353         0.19995        -3.14269
   H        5.56277        -5.32179         0.96257
   H        7.28937        -5.58331         0.69210
   H        4.85422        -6.14724        -1.23883
   H        5.58408        -5.53161        -2.72117
   H       14.79736        -5.98127        -2.97052
   H       19.32283        -5.93012        -5.72153
   H       18.12834        -1.11143        -5.25441
   H        5.98699        -2.89012         1.30621
   H        6.95206        -3.86120         2.41784
   H        7.70569        -3.13934         0.99489
   H        7.01722        -7.33435        -0.71108
   H        6.28509        -7.84700        -2.22601
   H        7.66857        -6.76126        -2.25393
   H        9.11741        -3.39448        -5.36209
   H        9.86955        -2.80841        -6.84694
   H       10.81912        -3.73263        -5.68363
   H       12.15637        -1.22806        -1.24827
   H       11.51333         0.39970        -1.06303
   H       10.43274        -0.98925        -0.93281
   H       -2.36265        -1.98623        -0.50587
   H        2.28616         0.31172        -2.36718
*
