# ORCA input file
# SCF done       -174.191982959448          0.000707253205
! wb97x-d3 def2-SVP def2/J RIJCOSX Grid4 TightSCF
%maxcore 5000
%tddft
    Mode sTDA
    Ethresh 5.0
    maxcore 5000
end

%pal
  nprocs 6
  end
* xyz 0 1
   C       -7.04294        -2.77917        -1.20312
   O       -7.87642        -1.90684        -1.02297
   C       -7.29860        -4.13890        -1.70864
   C       -8.49632        -4.70962        -2.09132
   C       -8.48163        -6.02259        -2.54107
   C       -7.29096        -6.73192        -2.59946
   C       -6.08447        -6.16066        -2.21422
   C       -6.08671        -4.85016        -1.76370
   C       -5.00701        -3.97947        -1.29716
   C       -3.68699        -4.33867        -1.20688
   C       -2.63372        -3.51357        -0.76010
   N       -1.72152        -2.90836        -0.40982
   C       -3.18545        -5.61122        -1.55460
   N       -2.70605        -6.62024        -1.81872
   C       -5.59942        -2.69917        -0.95952
   C       -4.91403        -1.60404        -0.49617
   C       -5.35565        -0.32047        -0.15466
   S       -7.03131         0.22381        -0.22240
   C       -6.55645         1.79174         0.31437
   C       -5.16945         1.87604         0.52684
   C       -4.48400         0.69456         0.27700
   C       -2.99964         0.58155         0.39771
   C       -2.32437         0.81810        -0.95625
   S       -4.62761         3.46216         1.04329
   C       -6.26554         4.00935         0.96162
   C       -7.17956         3.01505         0.57930
   N       -8.43693         3.54342         0.51038
   C       -9.50615         2.77978        -0.09237
   C      -10.05502         1.70969         0.85043
   C       -8.35775         4.88342         0.84234
   C       -6.98772         5.19722         1.10062
   C       -6.54920         6.52354         1.32551
   N       -5.32012         6.95834         1.54867
   S       -5.35644         8.57496         1.64201
   N       -6.94454         8.77861         1.39603
   C       -7.50137         7.58945         1.24082
   C       -8.86824         7.27372         1.05504
   C       -9.32631         5.91445         0.93858
   N      -10.69486         5.92192         0.93563
   C      -11.67205         4.88570         1.17900
   C      -12.62070         4.71562        -0.00478
   C      -11.12747         7.22910         0.97889
   C       -9.99221         8.08959         1.02665
   S      -10.40192         9.73970         1.20495
   C      -12.18199         9.22847         1.10318
   C      -12.34981         7.83827         1.14464
   S      -14.22499        12.66877         1.22720
   C      -13.00966        11.54300         1.13169
   C      -13.21124        10.14211         1.08902
   C      -14.60888         9.62215         0.96444
   C      -14.96419         9.42451        -0.51168
   C      -11.70851        12.20169         1.17608
   C      -11.04097        12.57077         0.06059
   C       -9.79177        13.29702        -0.08397
   C       -9.01063        13.78364         0.92597
   C       -7.78676        14.45922         0.73185
   N       -6.78852        15.01787         0.63934
   C       -9.32218        13.67410         2.29872
   N       -9.52033        13.62223         3.42811
   C       -9.50847        13.37703        -1.51492
   C       -8.45794        13.96442        -2.20420
   C       -8.44724        13.88674        -3.59030
   C       -9.45657        13.23849        -4.28861
   C      -10.51242        12.64627        -3.61083
   C      -10.52866        12.72166        -2.23121
   C      -11.52425        12.18361        -1.28908
   O      -12.52747        11.55017        -1.53540
   H       -9.41024        -4.13823        -2.03724
   H       -9.40190        -6.49624        -2.84787
   H       -7.29705        -7.75230        -2.95210
   H       -5.17640        -6.73777        -2.27156
   H       -3.84697        -1.73106        -0.37602
   H       -2.65679         1.34101         1.10321
   H       -2.70876        -0.39734         0.78131
   H       -2.57138         1.80732        -1.33457
   H       -1.24640         0.74460        -0.84652
   H       -2.64735         0.07656        -1.68325
   H      -10.28342         3.46388        -0.42480
   H       -9.09664         2.28125        -0.97788
   H      -10.30681         2.12297         1.82493
   H      -10.94514         1.26388         0.41625
   H       -9.31869         0.92473         0.99728
   H      -11.16942         3.95827         1.43695
   H      -12.26376         5.20663         2.04414
   H      -12.08629         4.47452        -0.92148
   H      -13.33036         3.92065         0.20541
   H      -13.16852         5.64136        -0.16167
   H      -14.67333         8.66232         1.48029
   H      -15.30335        10.33578         1.40959
   H      -14.32058         8.66668        -0.95210
   H      -15.99994         9.10913        -0.60612
   H      -14.82412        10.35242        -1.05943
   H      -11.35991        12.49094         2.15965
   H       -7.66156        14.47504        -1.68777
   H       -7.63371        14.34285        -4.13434
   H       -9.41863        13.19646        -5.36677
   H      -11.30825        12.13830        -4.13383
*
