97
 SCF done       -191.106734523080          0.000864817790
C           3.84700846665097   -4.16363226280228    0.51207796849191
O           3.48235658344936   -4.52873685798976   -0.59151657106631
C           4.77737939077827   -4.88543107093476    1.40358708980119
C           5.42158573161079   -6.08599849063346    1.18051507714254
C           6.25317583759810   -6.56388208286243    2.18040974613880
F           6.89838274843813   -7.72299653822433    2.00758048851575
C           6.42351978685708   -5.84743026724595    3.36550839803119
F           7.23151154916356   -6.33202012190419    4.31360402521703
C           5.77533979859444   -4.64123363506996    3.58858885377814
C           4.94212525282946   -4.15580171706087    2.59308104421326
C           4.13045071807802   -2.93969881889303    2.51649791422916
C           4.03808123049936   -1.99262840708382    3.50280060770842
C           3.26035746234366   -0.81630993447771    3.44833463857360
N           2.65656797822819    0.16068142842509    3.48323372645035
C           4.72014895072388   -2.06628777136877    4.73684925189744
N           5.24393832123228   -2.06346712166113    5.75761295840260
C           3.46306541364870   -2.94695383113583    1.22903067424255
C           2.61406196484919   -1.96802556617386    0.77043913022751
C           1.90910699152661   -1.85062734606756   -0.43074406984014
S           1.92851570660660   -3.03504063628143   -1.73771081224549
C           0.84433969519328   -2.05922972201775   -2.65500400200396
C           0.49964780043652   -0.87552718874409   -1.97610360478146
C           1.08456285199395   -0.74835289790457   -0.72386298468029
C           0.88713487866690    0.45101532891619    0.14316147056839
C           2.02811360579926    1.45475894521377   -0.04820635741090
S          -0.59173059418698    0.16216996584053   -2.87226907664182
C          -0.58058448135123   -0.99524861261048   -4.15532648495620
C           0.21051825233479   -2.12507851280879   -3.89911233202500
N           0.18107328466180   -2.96999707819199   -4.97498736087544
C           1.16866193117206   -4.02206875194980   -5.08302059578480
C          -0.63569582076245   -2.40385372962460   -5.93639555784848
C          -1.09264852251882   -1.13898757014106   -5.44896175472246
C          -1.82147828305163   -0.24741919442845   -6.26376009004104
N          -2.27421600951795    0.96151317157269   -5.96581791725878
S          -2.95647885045952    1.59110561132648   -7.28972180757320
N          -2.70382127661215    0.35124504072566   -8.28995106473717
C          -2.07783146169140   -0.60883505070338   -7.62834651067612
C          -1.71408832454601   -1.90156900044688   -8.06627340258258
C          -1.07166330609784   -2.82816019012017   -7.21434463272871
N          -0.98239501591251   -4.04057406545020   -7.88518627688094
C          -0.92223978498094   -5.37189460815582   -7.31967752605177
C          -2.19547107273450   -5.68737514435186   -6.53709130905213
C          -1.53509081756671   -3.89211618106099   -9.13811931546436
C          -1.98333882222565   -2.53354662598115   -9.30805303232560
S          -2.65765065146050   -1.89366427733824  -10.68125167981062
C          -1.79278646348737   -5.68997567343966  -10.97308260059160
C          -1.64517633674739   -4.87445574254741  -10.05820075153541
S          -2.80752346204613   -7.27209446992813  -14.43592840117715
C          -2.56017895143527   -6.22397932323056  -13.16901150588750
C          -1.91479800994908   -6.59856039605480  -11.96641160627242
C          -1.34777198383676   -7.97454523810374  -11.80428813580554
C           0.03782427227721   -8.04433316702301  -12.45294245035969
C          -3.09800936856257   -4.89098527840183  -13.38985939130154
C          -2.37082111560374   -3.75481757767932  -13.43690783151454
C          -2.85044321344002   -2.40143804677522  -13.69950735488454
C          -4.15055620088821   -2.00415674092511  -13.82466289518140
C          -4.55340988695993   -0.67499158604204  -14.08302681887345
N          -4.94400076206645    0.37897984083628  -14.31151275185132
C          -5.27338028953036   -2.85002227024953  -13.68948347160170
N          -6.23166876999825   -3.47198988209245  -13.58081053757618
C          -1.68041525785015   -1.52985784465797  -13.75172217384771
C          -1.57442625022920   -0.16300131248308  -13.96381703345249
C          -0.31186846785794    0.40672888092246  -13.92342813387093
F          -0.18559478739116    1.72225856639396  -14.12543729984236
C           0.83062345697961   -0.35772073828694  -13.67879492860702
F           2.03057805081324    0.23592595416463  -13.64378577119233
C           0.73451264778549   -1.72253359668851  -13.46908099638772
C          -0.52434943753967   -2.29152766043488  -13.50770490476456
C          -0.88839545068101   -3.70730195550447  -13.30643642157614
O          -0.13366409537250   -4.63336858861858  -13.11561065319874
C           0.79703928482572   -5.25404680559477   -4.25982664625496
H           5.28673465887594   -6.63630255950285    0.26312361322651
H           5.94207284661246   -4.12856680566786    4.52146476926785
H           2.45173241218075   -1.13525969722667    1.44059690599097
H          -0.05437194735201    0.92526227177597   -0.14043589260121
H           0.82478187307378    0.17046733576210    1.19551463483844
H           2.07701106755014    1.77958131609315   -1.08479879791755
H           1.86138473379698    2.32282645127211    0.58259860571886
H           2.98312792760741    1.01090853780272    0.22284795460771
H           1.31911984607223   -4.25562400088111   -6.13795319913689
H           2.11442582706905   -3.62407835172872   -4.69903375212736
H          -0.82356996354709   -6.06265162642959   -8.16133405886908
H          -0.04944608205433   -5.48959035974549   -6.68562501504614
H          -3.06502467929562   -5.61587566887034   -7.18688491822822
H          -2.14513464285409   -6.69649221987128   -6.13730845910928
H          -2.32443689817552   -4.98789973707878   -5.71321281492606
H          -1.27307553162384   -8.22221696042164  -10.74384196260701
H          -2.00837943617921   -8.69197585042148  -12.29544781266063
H           0.69560683743970   -7.29117339690275  -12.02648216147956
H           0.47163185163692   -9.02864918424361  -12.29619425151144
H          -0.03976747766076   -7.86169157610244  -13.52099178415719
H          -4.15202613055511   -4.86500816077346  -13.63573972463066
H          -2.42609770604841    0.46977279820056  -14.15105910438169
H           1.61443973963680   -2.31672222516918  -13.28026286130364
H           0.84595151926554   -5.02071610419994   -3.19993788526285
H          -0.20726317972972   -5.60101209389449   -4.48646068073344
H           1.50307429962815   -6.05464009874151   -4.46124682420913
