# ORCA input file
# SCF done       -183.509247066284          0.000532966665
! wb97x-d3 def2-SVP def2/J RIJCOSX Grid4 TightSCF
%maxcore 5000
%tddft
    Mode sTDA
    Ethresh 5.0
    maxcore 5000
end

%pal
  nprocs 6
  end
* xyz 0 1
   C        4.97119        -1.66014         2.70665
   S        4.25225        -2.55215         3.97228
   C        4.51134        -4.04002         3.06912
   C        5.18085        -3.79528         1.85754
   C        5.40492        -2.45634         1.63865
   C        4.01432        -5.30625         3.39197
   C        3.11897        -5.69063         4.36307
   C        2.48934        -4.80637         5.34807
   C        1.41768        -5.59914         5.98113
   C        1.43962        -6.90556         5.46274
   C        2.52762        -7.00623         4.48656
   C        0.48468        -5.19799         6.91763
   C       -0.45866        -6.11883         7.34617
   C       -0.43075        -7.40339         6.82510
   C        0.50133        -7.83055         5.88816
   O        2.77514        -3.65013         5.60521
   C        2.89697        -8.15479         3.83540
   C        3.96047        -8.27223         2.91639
   C        2.26281        -9.40272         4.01139
   N        1.79163       -10.44532         4.10430
   N        4.80769        -8.45389         2.16196
   F       -1.35729        -8.28106         7.24384
   C        5.03736        -0.28201         2.34764
   C        5.48094        -0.21577         1.00652
   C        5.87103        -1.58681         0.51344
   C        4.62384         0.85675         3.03937
   C        4.50177         2.02197         2.32362
   C        4.86236         2.07364         0.94923
   C        5.41675         0.96521         0.30568
   C        3.90363         3.34289         2.77112
   C        3.90013         4.08623         1.46376
   C        4.44682         3.35157         0.45083
   C        4.76608         4.02351         3.84593
   C        2.42739         3.20351         3.21438
   C        2.15720         2.43054         4.49921
   C        6.15521         4.38224         3.33107
   C        3.22436         5.22982         0.93206
   C        3.31274         5.14403        -0.48368
   C        4.26381         4.02412        -0.88528
   C        5.58335         4.68161        -1.34623
   C        3.65252         3.04411        -1.90747
   C        6.73953         3.70538        -1.51841
   C        3.74098         3.44102        -3.37738
   C        2.45829         6.21379         1.55806
   C        1.65244         6.99277         0.76202
   C        1.63164         6.80209        -0.63960
   C        2.52166         5.93597        -1.27716
   C        0.60246         7.99464         1.17215
   C       -0.15366         8.17862        -0.10602
   C        0.50205         7.50836        -1.14712
   C       -1.35574         8.71575        -0.50217
   C       -1.67017         8.40978        -1.83781
   S       -0.37176         7.51036        -2.61393
   C       -2.93208         8.68034        -2.37511
   C       -3.52271         8.22864        -3.53259
   C       -2.89450         7.36241        -4.53418
   C       -3.97730         6.93698        -5.44205
   C       -5.17742         7.55809        -5.05495
   C       -4.91273         8.41096        -3.89323
   C       -3.91726         6.05719        -6.50541
   C       -5.08451         5.78009        -7.19977
   C       -6.26355         6.39473        -6.80685
   C       -6.34631         7.28704        -5.74575
   O       -1.72075         7.04587        -4.61760
   C       -5.83645         9.22258        -3.28674
   C       -5.59120        10.06660        -2.18368
   C       -7.18093         9.33703        -3.69883
   N       -8.28598         9.47517        -3.97741
   N       -5.47675        10.77988        -1.29030
   F       -7.38760         6.10886        -7.48434
   H        5.42375        -4.59030         1.17470
   H        4.32883        -6.07411         2.69494
   H        0.49539        -4.18736         7.29481
   H       -1.21398        -5.85803         8.07039
   H        0.46068        -8.84347         5.52375
   H        6.95149        -1.65922         0.36454
   H        5.38862        -1.83918        -0.43234
   H        4.36883         0.78425         4.08377
   H        5.74127         1.01426        -0.72212
   H        4.25869         4.92954         4.18366
   H        4.86615         3.35065         4.69851
   H        2.03056         4.21314         3.33195
   H        1.87765         2.73157         2.39571
   H        2.75354         2.80867         5.32491
   H        1.10781         2.54444         4.76386
   H        2.35156         1.37003         4.37519
   H        6.09056         5.09198         2.50926
   H        6.74564         4.83026         4.12691
   H        6.67310         3.49342         2.97710
   H        5.40056         5.21419        -2.27998
   H        5.86229         5.42542        -0.59503
   H        4.14029         2.07642        -1.78831
   H        2.60198         2.90743        -1.63795
   H        6.50524         2.93856        -2.25181
   H        7.62227         4.24168        -1.86044
   H        6.97885         3.22408        -0.57352
   H        4.77209         3.48709        -3.71671
   H        3.22457         2.69325        -3.97607
   H        3.27262         4.40061        -3.57026
   H        2.45468         6.32188         2.63218
   H        2.51172         5.86472        -2.35211
   H       -0.03118         7.62426         1.97962
   H        1.06027         8.92780         1.51056
   H       -2.03459         9.26313         0.12781
   H       -3.55756         9.26506        -1.71093
   H       -2.97972         5.59712        -6.77574
   H       -5.09681         5.09604        -8.03337
   H       -7.29807         7.72438        -5.49412
*
