290
 SCF done       -547.092434924874          0.000740669991
C          -2.11029180418646   -3.84016737518203    1.15482324254857
O          -1.16141307474786   -3.84574627689745    1.91306977788696
C          -2.69317107671408   -4.95019628696581    0.41560410239895
C          -3.77101221807350   -4.47357317773124   -0.39631414692732
C          -3.88219140145596   -3.03669359505236   -0.23079716975175
C          -4.56381619060811   -2.20398421673065   -1.08623566409381
C          -5.36910506022118   -2.71678806028811   -2.12201346989775
N          -6.04617048367496   -3.12831035414081   -2.95255899494275
C          -4.45438900954393   -0.80218606058713   -1.07743703028529
N          -4.36452549433914    0.34177411735390   -1.11601971283157
C          -2.97618681050802   -2.66546072751735    0.82901234902420
C          -2.81809483043270   -1.51968386970610    1.55374689113122
C          -3.67149353604320   -0.41205374313998    1.74669383794907
S          -2.85868316038591    1.11059868599551    2.12140596036519
C          -4.36790216363667    1.92761757089526    2.24348712221445
C          -5.43174421037432    1.03576822230719    2.06039679492702
C          -5.05724838777005   -0.28370666691158    1.77988535088917
C          -6.07189487443006   -1.37834022292115    1.70290660632059
C          -5.87223914570050   -2.43154098859206    2.79329834211748
S          -7.00275918875374    1.78735290752747    2.21782862247345
C          -6.21786512170575    3.29720806105068    2.51703105131017
C          -4.82103500621496    3.22673738890817    2.49495204160993
N          -4.28551277376764    4.46048235708144    2.74677371919279
C          -2.88347336295586    4.56837389383856    3.08294669352317
C          -5.33183925089135    5.34531487003354    2.95209720135690
C          -6.55427608936799    4.62082449574200    2.82752106225591
C          -7.81158666639973    5.20932748775006    3.08514180877364
N          -9.01218234167787    4.65438049924529    3.03006783771977
S         -10.10587914723289    5.75415637711762    3.49216242373426
N          -9.08959696606714    6.98116229536951    3.78005165358623
C          -7.85722547056659    6.57203157814362    3.52224631812568
C          -6.65275879997940    7.30603987660892    3.58432941221426
C          -5.39224628960633    6.73659977420400    3.23703569106767
N          -4.43596930815168    7.73814738242762    3.29931097368774
C          -3.11449224558695    7.81050326399555    2.71675044471719
C          -3.15571643518924    7.57847534249339    1.20830239767551
C          -5.05927266288085    8.89104962921218    3.69462277375296
C          -6.42406345405637    8.65219076941000    3.89496381042294
S          -7.30893346369111   10.03364721303248    4.43339259246501
C          -5.82692929699542   10.96003558041808    4.39577773056855
C          -4.71605631812354   10.21636422068479    3.97350165106065
S          -3.28755106655900   11.18263004881336    3.96624193699094
C          -4.19103092242213   12.57180102659863    4.57186707801512
C          -5.54580042853685   12.29062621995906    4.71283187593294
C          -6.55724569641005   13.24464432302224    5.25178767573918
C          -6.44110736374923   13.34478097002236    6.77475048807259
C          -3.58507043415937   13.82438826553250    4.79323868839105
C          -2.27618864225117   14.14151968714323    5.00243791838368
C          -1.12566748877888   13.33550885179301    5.35082131982707
C          -1.11023184046113   12.17951630285140    6.09039976963253
C           0.09227837359611   11.51449288661773    6.39304381585917
N           1.06474771156448   10.94774645373517    6.61963974912922
C          -2.25539596605367   11.62561211378972    6.69328140933422
N          -3.16089026333148   11.19230790771726    7.25138870240930
C           0.04843475685340   14.13430939968126    5.04856886548635
C          -0.37142951196853   15.46460441952693    4.73357667681557
C          -1.82725263441382   15.54411721637086    4.76711238642250
O          -2.53681295939694   16.51564689328957    4.61394372400152
C          -2.68366040543854    4.81804497607318    4.57584832677397
C           0.66300703613037   16.34548068342512    4.53517273101740
S           2.18660214677865   15.48984537383344    4.71648062643345
C           1.40069307764508   13.99516603232035    5.07667203977818
C          -4.36986435605964   -5.45534177559201   -1.11999335773448
S          -3.63132660940862   -6.98732884354447   -0.81693124380689
C          -2.47006576479615   -6.30093817422320    0.30744368025577
C          -1.49517881902082   -7.11263227641009    0.94417092712500
S          -0.32361192515223   -6.44196975112203    2.04535125001051
C           0.35799587333205   -7.99217112971662    2.28907835272217
C          -0.26755429288571   -8.97121950754730    1.57358754116701
C          -1.32552591883880   -8.47301827747533    0.80421433587693
C          -3.14867271887866   20.63378158270081    2.78613732099850
O          -3.21517039497222   19.42367697653991    2.76236856433772
C          -2.02002978421217   21.47857402859896    3.15813852199571
C          -2.38603275922924   22.85565671028521    3.04061505506271
C          -3.78951289165577   22.93550085058212    2.67955778964377
C          -4.58597064974453   24.03455406821045    2.87367759748381
C          -4.04259048998806   25.27096507924335    3.27289400434402
N          -3.60265030258800   26.28691699214250    3.57550101789623
C          -5.98787001182596   24.01253536394270    2.76289202521530
N          -7.13511173583957   24.02245237409862    2.71360732649088
C          -4.20991026581350   21.59063623767178    2.34710663689578
C          -5.30724921790338   21.10458699050406    1.70394053925314
C          -6.26737795520368   21.74650815687615    0.88590936086609
S          -7.86194713706433   20.99488732894273    0.85548811233895
C          -8.41449930082748   22.14059918097698   -0.30248481284801
C          -7.38994400872683   23.02513202607242   -0.66472130081116
C          -6.17238197429336   22.81054428973472   -0.00298246635292
C          -4.91158251407265   23.52308170185625   -0.38385602254845
C          -5.02954860664601   25.04524482554224   -0.30087951704050
S          -7.88002230704121   24.17325601118424   -1.89042511772461
C          -9.45052104369559   23.45507875815582   -1.90521606321357
C          -9.59477668182422   22.39179073274953   -1.01004599178014
N         -10.85299572216175   21.86346740191879   -1.11130448674675
C         -11.13768375600382   20.59880143382334   -0.47436362860928
C         -11.53400853179375   22.56042791794127   -2.09625090610139
C         -10.65884559695380   23.56717108612375   -2.60365797384035
C         -11.01086315415552   24.41089223728379   -3.67883274013491
N         -10.29836812611152   25.37168172043751   -4.24648257238818
S         -11.15119524323547   25.97763692127634   -5.48174204333175
N         -12.45940065585976   25.03424319115154   -5.34214691190103
C         -12.27559074659627   24.21501590101286   -4.31828496565251
C         -13.15063172028506   23.23454492344142   -3.80399719454257
C         -12.83422346694700   22.44120555924487   -2.66153572180405
N         -13.92323765979796   21.62343525594153   -2.39396579862473
C         -14.30976744043345   20.93131183023617   -1.18355544851821
C         -14.43673503697678   21.89611598247024   -0.00700414530048
C         -14.87837897941625   21.87032053089883   -3.34417210417569
C         -14.42868499502524   22.85324258709994   -4.22991190411066
S         -15.54052000046766   23.21632257439190   -5.49963894047761
C         -16.63286346888477   22.01467369336348   -4.85057266707491
C         -16.13925034176742   21.38087032931569   -3.70334826102226
S         -17.21012712290304   20.13765267199238   -3.18099484872929
C         -18.32921239394997   20.50131118600614   -4.49330589820697
C         -17.86991770097411   21.53468013645926   -5.30141921434268
C         -18.45900536529338   21.99399069761567   -6.59854547588060
C         -18.78037918345953   23.48932353102531   -6.59806695449769
C         -19.41454910232024   19.60727227538716   -4.66735334605400
C         -20.62580640412154   19.81996140478591   -5.25189739071616
C         -21.35304584602455   21.04011080497935   -5.52763818290177
C         -21.29646375908629   22.21398513986472   -4.82340847020344
C         -22.14570799414889   23.29482060853584   -5.13047564103217
N         -22.82349915444922   24.18448245977513   -5.38783149213659
C         -20.43231846625612   22.42170103238687   -3.73261724732080
N         -19.74797948074812   22.61505784990782   -2.83125096900829
C         -22.31131691906291   20.71976061152766   -6.56615986811828
C         -22.31084207306067   19.30470160188842   -6.78412859459316
C         -21.35888712079826   18.67247633107331   -5.86740713326579
O         -21.14871438563896   17.49566843947596   -5.66927608952987
C         -11.10942765460200   19.44977126189365   -1.48016731484147
C         -23.10283029691206   18.91871024508837   -7.83910307319149
S         -23.88556265713218   20.32573660141625   -8.53208107534638
C         -23.12825941733415   21.39828973010783   -7.41524653575563
C          -1.36187770742348   23.70648711047783    3.31520068726024
S           0.07612092388731   22.83754617589759    3.71365552317077
C          -0.71295622469193   21.27878667444603    3.52884152111683
C          -0.02575225898685   20.06256900162647    3.78054804458309
S          -0.87618952799857   18.55398655756943    3.91962980178545
C           0.61888885513557   17.73750279705750    4.26080934031260
C           1.70024053932702   18.60235395279269    4.24361179323021
C           1.33515372524084   19.91541385050358    3.98753389204921
C         -23.55089536215970   16.58136161904131  -13.21634001754907
O         -23.55152777848225   17.71470712536620  -12.77449322169325
C         -23.64281375942952   15.32656601870291  -12.48900263416662
C         -23.62107764169807   14.23338964907918  -13.40977512196716
C         -23.41536315429144   14.75830076645902  -14.74944343468363
C         -22.96853367508074   14.00253266385365  -15.80795092778457
C         -22.91583122193165   12.59659566798106  -15.73436199653825
N         -22.89255916778815   11.44975547218185  -15.69415687503683
C         -22.41599410058784   14.54012922192920  -16.98354671796142
N         -21.92398468429179   14.95185303679151  -17.93588810182705
C         -23.49269490537677   16.19657497956989  -14.65637791285306
C         -23.49684700354560   17.20489699499498  -15.57836403991254
C         -23.69069012473890   17.23445746241114  -16.97338603143229
S         -22.84784165031721   18.55287896680126  -17.79422783458805
C         -23.42728031972602   18.01447059637434  -19.31985305660864
C         -24.28993961305578   16.92043543930932  -19.17355601743611
C         -24.44794742908461   16.46939012839465  -17.85745171424655
C         -25.43466612599895   15.40769397819640  -17.49653203542492
C         -26.52651321743387   15.93119090560964  -16.56250797956218
S         -24.93607456286514   16.34692644872669  -20.69527681970073
C         -24.02136901514471   17.56409699263874  -21.51574450235622
C         -23.26667406741068   18.37360880139991  -20.65987049694126
N         -22.56857148444099   19.30206104572670  -21.38121578669986
C         -21.98229329380865   20.43502008449547  -20.70135712318192
C         -22.86588725461820   19.10939045712847  -22.71968875653557
C         -23.79702458546398   18.03274118774788  -22.81770901505624
C         -24.37437719370129   17.65164821103251  -24.04899753321646
N         -25.26464710791780   16.70073528695877  -24.28512050032572
S         -25.63766843988724   16.72707023724912  -25.85933425883139
N         -24.67901567239728   17.95376876205028  -26.30122164072619
C         -24.02926220040791   18.38412454959134  -25.23107475172590
C         -23.05332458176709   19.40125066797584  -25.14331580739957
C         -22.41751381460682   19.73716947538982  -23.91197003513590
N         -21.44787346865789   20.69364811603955  -24.17093048580634
C         -20.27730592044764   21.07063206239761  -23.40765844877118
C         -19.40165867798951   19.86131132848181  -23.09113468487543
C         -21.47701780442359   20.96260825299794  -25.51274832686238
C         -22.46466229886910   20.19296197939444  -26.13886403004644
S         -22.57099933929157   20.44735892548299  -27.84479568885504
C         -21.26701718912582   21.60764463270021  -27.72745280997216
C         -20.79165601629749   21.77319056952865  -26.41920377705431
S         -19.51348237891718   22.92694629613000  -26.35842482672555
C         -19.61022502795914   23.16446282516781  -28.10419376384591
C         -20.62088477870413   22.40061081786746  -28.67917089118999
C         -20.90497481505134   22.34268707471322  -30.14149024250158
C         -19.86629488170835   21.47191682188679  -30.85303631206076
C         -18.80222666570801   24.11407456353984  -28.76036988307487
C         -17.62647814410573   24.67248854615621  -28.35135269141646
C         -16.68196667402914   24.26919159896283  -27.33106163959450
C         -16.40428003369729   22.99340012571626  -26.90942082667450
C         -15.42475570944527   22.73799053077132  -25.93183860626292
N         -14.65133992258311   22.52149380712033  -25.11136840848529
C         -16.99766838578232   21.84332435876746  -27.46369361774347
N         -17.42643450729112   20.88978812455455  -27.93897265437952
C         -15.86897348943413   25.43262159755107  -27.03421233839203
C         -16.15184250179698   26.45610481412513  -27.99883896845823
C         -17.20659129573395   25.98870638207952  -28.91248374856747
O         -17.67758361284773   26.54698084761218  -29.87662055107823
C         -22.76202961909553   21.71811929245017  -20.97794310145059
C         -15.39435621578056   27.56862982474905  -27.83031520772351
S         -14.32841489246278   27.38647547012222  -26.48541719761712
C         -14.89862195117844   25.79184525986594  -26.15261551821429
C         -23.66882693791768   13.02179783550993  -12.79378711357688
S         -23.71977334787167   13.19556905864099  -11.07551687603578
C         -23.66067344402417   14.94665003780207  -11.16858908173448
C         -23.54529498432836   15.75965905636040  -10.01134644187650
S         -23.63806230766492   17.49056225367287  -10.11573693492978
C         -23.26673862546039   17.63089733325221   -8.42573709179931
C         -23.08236747758055   16.39825619484608   -7.83145341127753
C         -23.25892365874227   15.34534316341655   -8.72327901094198
H          -1.88127163679644   -1.47643086883394    2.10507610333500
H          -6.04898688738369   -1.86127497122339    0.72332712095680
H          -7.05820477419365   -0.92332462918140    1.81899198849944
H          -4.90524262104270   -2.91923805280995    2.69879379981943
H          -6.64950440188064   -3.18801276300350    2.72130363044687
H          -5.92936434130529   -1.96989882584051    3.77628513520195
H          -2.40086753835358    5.33434711184151    2.47641221233051
H          -2.42649283855642    3.61278269537837    2.81407743138815
H          -2.43510577811822    7.11845116013907    3.21416613185537
H          -2.74337873997333    8.81897074732650    2.91593122077581
H          -2.14981679818444    7.61886486287090    0.79942546060899
H          -3.75448832918218    8.35021321613826    0.72998982097115
H          -3.59537016160869    6.61306145490025    0.96886090813576
H          -7.55229269857843   12.88296111024968    4.98535514788905
H          -6.41558308790479   14.23339074771106    4.81013609292356
H          -6.57996863474051   12.36674984012235    7.22819568369728
H          -7.19796208460019   14.02126120017927    7.16279865373704
H          -5.45902416707745   13.71572166132044    7.05818802447755
H          -4.24705087099707   14.68288265583677    4.71834324826619
H          -3.19485281398993    5.72222429615573    4.89824885263071
H          -1.62433723944748    4.91474724709836    4.79728758532359
H          -3.08106749596372    3.98286096815993    5.14782059284262
H           1.99393355066339   13.12534648457359    5.27683539902824
H          -5.19533447586344   -5.39782350947876   -1.80095194423917
H           1.19245943586210   -8.10150045662309    2.95364478986732
H           0.01963110297375  -10.00696218197746    1.59745515445696
H          -1.95011244079576   -9.07386071166043    0.16677647368083
H          -5.44155920957453   20.03085781115478    1.81262811347795
H          -4.68396192853617   23.25325127718344   -1.42069552965315
H          -4.08495126578769   23.17246131828891    0.23407935472259
H          -5.72353574438317   25.41566986890307   -1.05022423168189
H          -4.05760806490631   25.49958297282935   -0.47727797775720
H          -5.38821531330309   25.36396311119761    0.67409877370075
H         -12.08405675409581   20.64664329186282    0.06221020588715
H         -10.35371959614745   20.44237086287616    0.27076012621916
H         -13.62093455717758   20.11544183193656   -0.96732187704365
H         -15.28503966766509   20.48104610681739   -1.38437292810920
H         -13.50666440322916   22.43329582326189    0.16580283997090
H         -14.70192854491130   21.34969325852650    0.89400195334807
H         -15.21650551123629   22.62643817624773   -0.20969445287605
H         -19.35097010642346   21.41454796848348   -6.83599749475964
H         -17.71960166987190   21.80292299944968   -7.38294951660023
H         -19.42097621115328   23.75806847281533   -5.76243647561833
H         -19.28618532274941   23.75875428406782   -7.52182564998510
H         -17.86729117588954   24.07315388338361   -6.52099392270084
H         -19.22244309096192   18.57911227274830   -4.37266311293997
H         -11.81319929312076   19.61986036034174   -2.29197647026645
H         -11.35868412352614   18.51511405809121   -0.98527904348152
H         -10.11418103879733   19.35836362163663   -1.90886482181223
H         -23.31839699559611   22.45142060847678   -7.47627089885716
H          -1.34130664255190   24.77792196001012    3.29943646867594
H           2.70896764403640   18.27531840100126    4.42539020037721
H           2.02275355776034   20.74193122445207    3.94726494774787
H         -23.30979158918663   18.18126428002597  -15.13388817336309
H         -24.93420437013405   14.55919205457542  -17.02339281201987
H         -25.88972806352911   15.04646451111254  -18.42132098692638
H         -26.10404954837967   16.28408820244157  -15.62486094907995
H         -27.23735358666371   15.13808563410753  -16.34537242807201
H         -27.06033061688167   16.75470297616596  -17.03108450919919
H         -20.92863877435760   20.53625241649313  -20.96119014516230
H         -22.02672394753355   20.21201995562127  -19.63253272639254
H         -20.56220865841303   21.61321898978859  -22.50658778046238
H         -19.71224803473199   21.76680780037695  -24.03236267440847
H         -18.53557271314637   20.17284510464268  -22.51365497662231
H         -19.05275968874121   19.40504643742124  -24.01467685898343
H         -19.95088693065252   19.11051561285008  -22.52772074052534
H         -20.88978618863097   23.34824492104966  -30.56752338045718
H         -21.89960606884670   21.91702896829184  -30.28702670530931
H         -18.86882637291145   21.88431553530190  -30.72114595776457
H         -20.08827001075689   21.42004639045068  -31.91553574741775
H         -19.87485872891245   20.46502243098666  -30.44385423153967
H         -19.21114196836558   24.52873822642417  -29.67732741112014
H         -22.80668264997114   21.93231408249601  -22.04318624560901
H         -22.29085546474982   22.55481075431099  -20.46936110670481
H         -23.78063438479036   21.61946992644148  -20.60986866009875
H         -15.38689983351559   28.47454014648249  -28.40243096271554
H         -14.48682057256752   25.24250593783430  -25.32975664920435
H         -23.67704024482769   12.03778228753694  -13.21832151564301
H         -22.81568712671961   16.28078560056198   -6.79724704851304
H         -23.15842424608420   14.30676685010606   -8.46117937559348
