290
 SCF done       -547.121667777569          0.000866737321
C          -4.94921886351648  -34.72447677297394  -11.75900645919488
O          -5.10059599749637  -33.60415984269527  -11.29989238940101
C          -5.16368460655096  -35.99549877442156  -11.09033424212635
C          -4.88475413182923  -37.06341296881001  -11.93645831922848
C          -4.46768283772343  -36.53762065505401  -13.22456590249348
C          -4.12724540211369  -37.31540097732432  -14.30140479128579
C          -4.15406457678810  -38.72424382731870  -14.23274327354324
N          -4.17240726104831  -39.87127839652772  -14.20306203129095
C          -3.72385122534180  -36.84971782871116  -15.56756570164366
N          -3.38993494835611  -36.54044627168259  -16.62280161272069
C          -4.49789825369084  -35.08981403846119  -13.11669759362017
C          -4.13982329778469  -34.22504712879502  -14.11833340149131
C          -4.11732436860152  -32.82532420663949  -14.16296333571703
S          -4.60220652661698  -31.77301239234759  -12.83444796501647
C          -4.25800681243634  -30.38270653251858  -13.79133184045643
C          -3.79003316203104  -30.72909774079364  -15.06986441168039
C          -3.70318714719231  -32.09817574121328  -15.29101203796807
C          -3.27988299528382  -32.68076452845892  -16.59981555306351
C          -4.49780705854967  -33.00560943468681  -17.46914078280655
S          -3.43196810365406  -29.34370848413168  -16.08452094907089
C          -3.92103578411319  -28.30694056680194  -14.78925601510000
C          -4.32119772089626  -28.99505445861487  -13.63579798570172
N          -4.72693908178164  -28.10319902356844  -12.67899010226781
C          -5.48508457613812  -28.55935045743429  -11.53398710214523
C          -4.59196175451740  -26.83390735474935  -13.20225951933671
C          -4.11430452499808  -26.94109325564666  -14.54077439974776
C          -4.04162537232965  -25.81283855706677  -15.38930660917171
N          -3.64491595037953  -25.75545614893645  -16.65042772803910
S          -3.86227441693594  -24.24522939709470  -17.19064330497494
N          -4.47262211710182  -23.60397895922641  -15.83558249522748
C          -4.52385232559635  -24.54790586063815  -14.90942957569126
C          -4.93525482633101  -24.43743373840008  -13.56208632393408
C          -4.87120390552801  -25.54887646002902  -12.67486371663882
N          -5.21748641923233  -25.12729491386804  -11.40252133259019
C          -4.76815415575105  -25.64418304419719  -10.12680899957297
C          -3.49322680509589  -24.93770024865767   -9.66581348161804
C          -5.54474105414711  -23.79806188578853  -11.49012318271347
C          -5.38876967264484  -23.34487470263535  -12.80489860132313
S          -5.80622541303247  -21.68013007545544  -13.01698305408598
C          -6.20214543531895  -21.58354971353742  -11.31279071115771
C          -6.00912507810297  -22.79552802760391  -10.63729229233542
S          -6.48074852617991  -22.66394060671877   -8.99086093146566
C          -6.89344550329966  -20.95178836804839   -9.20990673610721
C          -6.70279410723900  -20.53677581996646  -10.52754616591836
C          -7.07363535198021  -19.22946639714679  -11.13953006736129
C          -8.55123037159742  -18.88529797415872  -10.95971171863399
C          -7.45562722102737  -20.36810587759069   -8.05635929211105
C          -7.52711322616793  -19.07013641879044   -7.63083541482805
C          -8.35176742246554  -18.62559368230427   -6.51874935493986
C          -9.25190834424696  -19.34524964034138   -5.77761641321257
C          -9.96977155911173  -18.75608433691753   -4.71476553774689
N         -10.55565310390711  -18.30005349458556   -3.84009775896743
C          -9.57847499249428  -20.70464930286357   -5.95180248505904
N          -9.90802763534315  -21.80161719271185   -6.03956028563252
C          -8.08881449102744  -17.21068419989313   -6.33863103917469
C          -7.12835689576128  -16.81280647538247   -7.26218998602016
C          -6.69785139722251  -17.93095364440680   -8.09427147587702
O          -5.79590038562715  -17.95166096652386   -8.90950521496103
C          -4.59658566253038  -29.19393720795931  -10.46334752252940
S          -6.72161902557141  -15.15976286170025   -7.11152453299810
C          -7.87431444145111  -14.98583331356661   -5.80442240852514
C          -8.52228752581326  -16.16920541770282   -5.51240349500536
C          -5.07341770006780  -38.30815670472897  -11.32704243340965
C          -5.49326283611127  -38.17626206923887  -10.01867673410850
S          -5.66031322086633  -36.50324177191408   -9.53495176597964
C          -5.77857053909651  -39.22127527925178   -9.09318815939261
S          -5.62223742777757  -40.89344639909473   -9.55388077347162
C          -6.10776673509599  -41.40036402669981   -7.99018320130251
C          -6.37462924315009  -40.35331351327483   -7.16200965106594
C          -6.18848347833680  -39.10945444069139   -7.78631376087061
C         -10.75875354784610   -8.16167835422417   -0.46254561910897
O         -10.21136444722315   -7.09858732417675   -0.22084415582020
C         -10.30380859697073   -9.21100827338752   -1.36050597589865
C         -11.18645345650608  -10.28601702327349   -1.36504933530192
C         -12.29687441747580   -9.97810739643552   -0.47977311642888
C         -13.36090185346479  -10.81425857867152   -0.25961856186680
C         -13.46261099521664  -12.06403796936928   -0.90672570801175
N         -13.56714637274618  -13.08218828895432   -1.42521247636925
C         -14.45292996989930  -10.56159616038126    0.59276815197027
N         -15.36929464868244  -10.42235469830452    1.27199060811380
C         -12.03335660680126   -8.66632994508449    0.08304004680312
C         -12.86344108525272   -8.01202806771020    0.95791407844837
C         -12.72068843854865   -6.78732712553827    1.61996257311667
S         -11.30515854708657   -5.74343568860374    1.49653382235008
C         -11.98776352170893   -4.65907486726817    2.64713656951843
C         -13.25677900961946   -5.08156890698671    3.07858177738949
C         -13.68295885262530   -6.27302730301458    2.50570127996166
C         -14.97729952053580   -6.92565140547532    2.86625800531783
C         -14.77967619120246   -7.93605051584274    3.99970643406485
S         -13.98669585920361   -4.01078112487779    4.26126956516312
C         -12.57633328769732   -3.01184584751082    4.18382522697895
C         -11.61100512292114   -3.46967885860645    3.27582682091240
N         -10.51359028882748   -2.65193465368812    3.31082272875458
C          -9.26675705371769   -3.08259018567206    2.71574830933338
C         -10.75676647625908   -1.66208832512077    4.23980246821779
C         -12.03784897003215   -1.88640951945772    4.82245245896541
C         -12.48018913496466   -1.13327250584210    5.93473810219009
N         -13.62367219794651   -1.23362767187444    6.59251807257883
S         -13.58275370671032   -0.22153883945298    7.85537923348452
N         -12.10124609214608    0.38443946883991    7.61298197327894
C         -11.58703854770437   -0.17913861407243    6.53195726154294
C         -10.34213929804927    0.07805551263103    5.91338613282707
C          -9.97121574104936   -0.57892251033025    4.70385842002631
N          -8.77406196508761   -0.05351739720277    4.25721997093920
C          -8.28816998860921    0.07041907025769    2.89850482179252
C          -8.70176528863283    1.40938698907332    2.28831521159173
C          -8.36150507091220    0.86551977464861    5.18669264991104
C          -9.29998990150087    0.96692561334229    6.22099634567317
S          -8.84240126594139    2.09319182352699    7.45499456044487
C          -7.35820244250795    2.41960193833764    6.57348099485530
C          -7.25383473607860    1.69140131759833    5.37652002436161
S          -5.78044103061105    1.99919427153835    4.54685815778672
C          -5.28386914756070    3.10857405732204    5.82711768180805
C          -6.26124797872713    3.23162120685010    6.83205011234857
C          -6.13700624753885    4.05659975164024    8.07126457901542
C          -5.38531764667620    3.28941450228640    9.16272754183319
C          -4.04332321524031    3.75407379538133    5.87904765223767
C          -2.95149770397205    3.66663536767220    5.05038622396183
C          -1.67601094719750    4.31984470850428    5.28254563913445
C          -1.32532519789063    5.20064122267378    6.27401762716863
C          -0.02550992901931    5.74240346020414    6.34740699541624
N           1.02958449265910    6.18802745812603    6.42312509111566
C          -2.16746472853023    5.67091333253643    7.29966169924784
N          -2.79921161835018    6.08951985668061    8.16345513245495
C          -0.77188411321944    3.86416211896080    4.23836545269540
C          -1.47459258685429    3.01796360342283    3.38707475301776
C          -2.85242013972784    2.86063039684950    3.81999606271237
O          -3.72833738779975    2.20871807509682    3.27658750113751
C          -9.25902192222881   -2.91338614012379    1.19609719264618
S          -0.50855159322709    2.39398492699453    2.12857724539232
C           0.87542742189207    3.26405653614108    2.75025006653700
C           0.57082151946437    4.00978570593418    3.87504648787613
C         -10.77185742223504  -11.33073769310708   -2.19594610400123
C          -9.58024083712655  -11.03470241915124   -2.82953339703724
S          -8.96238557899771   -9.45705342367725   -2.39066570150274
C          -8.86756186371037  -11.85771353475617   -3.74531256473167
S          -9.34591685110503  -13.50756595052120   -4.01299317414311
C          -8.06056334478158  -13.72977442494553   -5.16265877998677
C          -7.32298212257636  -12.57481513507267   -5.31505063873969
C          -7.77123749027541  -11.52611000647106   -4.51342541168124
C           7.69386195508880    0.31878415472889   -2.55075659656330
O           8.89444118683820    0.51585362221154   -2.46599864430730
C           6.63669070694782    0.88049246102788   -1.72293506092479
C           5.38835131456584    0.41591230030023   -2.12422322622585
C           5.56314386222970   -0.47361493118476   -3.25885845141208
C           4.53181036744699   -1.09484407386204   -3.91605994860366
C           3.18933570386783   -0.90995099901319   -3.52458085439444
N           2.08963706127914   -0.77169120418498   -3.22676254299521
C           4.65146988921949   -1.96216002599755   -5.01884929136944
N           4.67399004991103   -2.67740057445544   -5.91813472613019
C           6.98837668183053   -0.54648501505270   -3.51602357702515
C           7.56047873777638   -1.31673022622741   -4.49660661599375
C           8.89830086848259   -1.51946839700295   -4.84931877111022
S          10.27470055084081   -0.74364389126457   -4.06563828168959
C          11.35855043127175   -1.59305883411397   -5.10133663279012
C          10.67620189293016   -2.42731381999660   -6.00451688841683
C           9.29437638818378   -2.39163792863568   -5.87789621468779
C           8.38332525462078   -3.23500189343503   -6.70858498658074
C           8.03016250732784   -4.53534611750600   -5.98130570051287
S          11.73758523997828   -3.31101466253936   -7.08550958085594
C          13.09113743978731   -2.55207264403510   -6.32327794385240
C          12.74092016270178   -1.67908668693241   -5.28525026949223
N          13.86795834053870   -1.10587062108152   -4.76051077579271
C          13.74143979940584    0.04083982073091   -3.88958418302496
C          14.95886902257354   -1.60917099353641   -5.43953070030820
C          14.48418583954972   -2.49676212962768   -6.45185144636167
C          15.34752893067443   -3.05804652235410   -7.41887081894838
N          15.04797747151876   -3.86183147727942   -8.42671833732374
S          16.39504956675872   -4.13462426051588   -9.28270148170551
N          17.41265403629552   -3.23873234056322   -8.39819211320072
C          16.73421243228819   -2.69566110476055   -7.39997447623715
C          17.21514900000817   -1.89253410853556   -6.34184479482018
C          16.35846009477300   -1.40796582010002   -5.30928397658552
N          17.13742042611701   -0.77201281707770   -4.35643921899012
C          16.89737989748251   -0.56841286066104   -2.94319706569460
C          16.96183966065225   -1.89322382433629   -2.18580266624521
C          18.44086317927184   -0.83967353937713   -4.77639127083679
C          18.51853247266762   -1.50304915990446   -6.00605397668794
S          20.12697139581571   -1.64148627521782   -6.62552643937760
C          20.71326743421220   -0.80919641645483   -5.19681985483476
C          19.69439301182693   -0.44621948190887   -4.29966045126165
S          20.31519700450416    0.35720816569304   -2.90853738548555
C          21.95675849595898    0.19836354589705   -3.53518633453600
C          21.98968096240814   -0.45658089207049   -4.77774092828421
C          23.20963761321900   -0.70827696873079   -5.60215688443958
C          23.56883539236427    0.52723240243292   -6.43222320020488
C          23.10774320781315    0.65586578183639   -2.88345240480648
C          23.27117248887344    1.31622175801115   -1.69299771428921
C          24.55307662429666    1.72367553826097   -1.14387863878689
C          25.81061049379698    1.52380518689963   -1.65336591226442
C          26.96149625777538    1.98346789510871   -0.97937907780103
N          27.91142161515184    2.34991474881156   -0.44983300475676
C          26.12428100460270    0.86103338386949   -2.85554321797829
N          26.45144139406519    0.33380246113770   -3.82292872556816
C          24.27521975993920    2.40559531752204    0.10699018638033
C          22.90351341359480    2.40976322677380    0.31940781936708
C          22.20251702543205    1.73671449742771   -0.76718655219660
O          21.00255773705133    1.55814094387308   -0.88181364130474
C          13.42836739573856   -0.36162209418827   -2.44901743881187
S          22.47074225402741    3.19140870099855    1.77591741779670
C          24.13391138152532    3.51313728421556    2.09870555903147
C          24.98494114216068    3.04612714526904    1.14079995797424
C           4.34248046973649    0.90808823075139   -1.34079706780540
C           4.80293847278189    1.74865978417091   -0.34505619298228
S           6.54202171374771    1.93754689518544   -0.38138333955501
C           4.01241423293268    2.39222905334774    0.64612519235454
S           2.30532450254775    2.07929502685207    0.72971395511511
C           2.14099329306485    3.11620721148250    2.11415182107664
C           3.35496285606924    3.67274886669518    2.46344167123855
C           4.40416813469065    3.26418632237008    1.64020867790004
H          -3.81342440276237  -34.68740357240618  -15.04041722433849
H          -2.68747112993278  -33.58512494536929  -16.45410202359652
H          -2.66008967729598  -31.94483506843935  -17.11590174649013
H          -5.13503008890211  -33.73905570268374  -16.98075309042798
H          -4.17184291297537  -33.41411866021105  -18.42125305154105
H          -5.08054790039476  -32.10630494790455  -17.65450448562135
H          -6.19270732172123  -29.31780265046854  -11.88654095052981
H          -6.06610736625224  -27.72364592706621  -11.14199383508618
H          -4.56415189045289  -26.70435975316012  -10.21150599550653
H          -5.56695804023462  -25.48394331718934   -9.39601606273116
H          -2.70396310717602  -25.06532433677015  -10.40402437165585
H          -3.16258939501622  -25.36370919847188   -8.72267745558957
H          -3.66526510503379  -23.87454634686105   -9.52188119986426
H          -6.83998124131268  -19.27979550628742  -12.20517220907891
H          -6.45735784627057  -18.44329957893407  -10.69421958008208
H          -9.17758013307117  -19.66736822972623  -11.38393042111733
H          -8.77420328832394  -17.95046205597772  -11.46733449705269
H          -8.80561225293239  -18.77449480203734   -9.90875845811382
H          -7.89007212442432  -21.10291139881078   -7.38608764022764
H          -4.23494472718545  -30.16090128014706  -10.80078634957965
H          -5.17127495487400  -29.34604297862076   -9.55423669860807
H          -3.73230166081954  -28.57310834454588  -10.23623268954496
H          -9.25872629878096  -16.25173758360445   -4.73415112763530
H          -4.91750452606510  -39.26401793984815  -11.79260742809346
H          -6.16755153189969  -42.44850283316961   -7.77409520387801
H          -6.69276731221895  -40.46798982999928   -6.14165536261706
H          -6.34626078508254  -38.16153098673232   -7.30324373232086
H         -13.78489613489157   -8.52495414723631    1.19947352172342
H         -15.41675701018078   -7.42880252270088    2.00407264562908
H         -15.66887437399513   -6.14907240626106    3.19919340433667
H         -14.09629643098634   -8.72587386133766    3.69708163648156
H         -15.73237169816652   -8.38832249768072    4.25919622315401
H         -14.37444063340263   -7.44216416490208    4.87974138765263
H          -9.14228093463949   -4.14702535149812    2.94358216921932
H          -8.44580543572519   -2.54508475228235    3.19151685301966
H          -8.69661520835608   -0.72662158266863    2.28938813385078
H          -7.19674952210490   -0.00390070744044    2.91846170082710
H          -9.78532908232187    1.51072282901781    2.29775818522346
H          -8.35330948677174    1.46090035485708    1.26073914927529
H          -8.26825657562658    2.23920367163773    2.83919006909480
H          -7.14228246608206    4.28806733147315    8.42877849540354
H          -5.62157013042551    4.99597731208145    7.86662616584954
H          -5.90902440391138    2.36780757886397    9.40565895804566
H          -5.31530012927398    3.89858056002695   10.05931133104519
H          -4.37836643989223    3.04091693165657    8.83538394970304
H          -3.92654365115952    4.39622710550136    6.74205642255033
H          -9.60052324347119   -1.92404670054869    0.89872020143568
H          -9.91264015100415   -3.64693993749944    0.73298634726251
H          -8.25327004358143   -3.06815502931866    0.81628794604461
H           1.29128737584364    4.61153224169140    4.39579559198971
H         -11.29517244387832  -12.25705710324146   -2.34774398588653
H          -6.48332285959935  -12.50668335993292   -5.98364867790000
H          -7.32135460569663  -10.54947938778472   -4.49096473978129
H           6.86822338407290   -1.88363210187561   -5.10474672935040
H           8.89911861750021   -3.47745446793484   -7.63981158715256
H           7.46665791350152   -2.69752954549119   -6.95549872581340
H           8.93157072991944   -5.10315476473545   -5.76299353955096
H           7.37810971404044   -5.13984586685531   -6.60509113204727
H           7.51541446895024   -4.32667741193445   -5.04633181217642
H          12.90971494660359    0.64665627527271   -4.26564389459139
H          14.64629842195315    0.64508860473582   -3.96824417943910
H          15.94172468660360   -0.08681186631571   -2.77034916927534
H          17.68422817724412    0.09928385623787   -2.58289155252677
H          16.20572830024316   -2.58366176776535   -2.55547323134844
H          16.79563585630621   -1.72017922943308   -1.12627523999009
H          17.93913952301113   -2.35317721791396   -2.31159858946338
H          22.99926578338264   -1.54097179887437   -6.27625433221325
H          24.05893837202414   -0.98265862257995   -4.97478382009729
H          22.74619696473665    0.79112872163273   -7.09276742138286
H          24.44926944888108    0.32250565750392   -7.03443820037494
H          23.78253062423419    1.37612552159054   -5.78692061720510
H          24.01829315756600    0.44564592178382   -3.42862170705901
H          12.42917597512794   -0.78463482187451   -2.39286935157805
H          13.46033333287406    0.51432603598372   -1.80727651689364
H          14.13321265954971   -1.10084749791636   -2.07755687249291
H          24.39371837443472    4.03979861561953    2.99606418335221
H          26.05205193006295    3.16002690169643    1.18378706899451
H           3.30084767931364    0.67720165830779   -1.46969120102514
H           3.47472969202081    4.34716440699112    3.29126174579426
H           5.42337750717714    3.58634170277823    1.75976103356690
