290
 SCF done       -547.074035522171          0.000714201417
C          -3.61120116724370  -28.50938851348837  -13.70937071722701
O          -3.97798146281275  -27.45012248364457  -14.16249202046202
C          -3.36329785538045  -29.77698750913388  -14.41394364611469
C          -3.01257097303722  -30.74578054916270  -13.47795440673289
C          -3.03826416206702  -30.22522964252729  -12.14243402702242
C          -3.04967630086481  -30.99538541232419  -11.00315014873497
C          -2.84912615346071  -32.38799455930205  -11.07802126729471
N          -2.66600552371999  -33.51988428383313  -11.13361426853837
C          -3.34950896736116  -30.52991388615567   -9.71188357145257
N          -3.64272233039320  -30.22488261962958   -8.64406187390708
C          -3.26806076603503  -28.79533035357654  -12.28233454925294
C          -3.17065687383139  -27.76675645500793  -11.40039657727652
C          -2.57134255916972  -27.73258094069807  -10.11578254153047
S          -3.33114942061695  -26.68976220226433   -8.91784600846984
C          -2.17296165755868  -27.16388298158920   -7.73586339373735
C          -1.21484002306450  -28.02587617562018   -8.28051417262929
C          -1.43260833458802  -28.35496123813593   -9.62791916642012
C          -0.47632632221335  -29.16786865997326  -10.43970584593181
C           0.92319176003941  -28.55144936222247  -10.43774234672746
S          -0.01117646752355  -28.53331609706178   -7.11790536870077
C          -0.81241088964889  -27.59498651876196   -5.90774921463432
C          -1.94757531269629  -26.92722204249145   -6.37556579093588
N          -2.52789663428486  -26.21762709271022   -5.36013300750764
C          -3.49876347743614  -25.19316881687435   -5.67400169317078
C          -1.76580701769150  -26.41093913483126   -4.21944137832168
C          -0.66798007571243  -27.25554627229841   -4.55502566516405
C           0.36167657153424  -27.54793414148828   -3.63376167553532
N           1.44779288018696  -28.28269889173979   -3.81479571762637
S           2.33380039857934  -28.23014740442252   -2.46133097187670
N           1.36520277193287  -27.26824201167372   -1.59075290923986
C           0.31231162821035  -26.95533494465819   -2.32952579941599
C          -0.81722580279929  -26.18634868709394   -1.97295290507764
C          -1.89597223934354  -25.96267423854261   -2.87771560443038
N          -2.89628826738000  -25.28590653817500   -2.20023340462289
C          -4.30165059646511  -25.14228918539305   -2.50827681547647
C          -4.96970177961388  -26.49804587901588   -2.72210561378045
C          -2.46073181259527  -25.06717478469447   -0.92159590079293
C          -1.17582429483959  -25.59199532081277   -0.75490366653673
S          -0.52775567512753  -25.34670829775940    0.82835131352162
C          -1.99853900501123  -24.51534210883101    1.28452070469892
C          -2.93947225313322  -24.46941596169621    0.24725699749129
S          -4.39181068742719  -23.70036644713643    0.75309441711377
C          -3.68812451980115  -23.35559767754225    2.33121084446429
C          -2.40862845717075  -23.87761447251782    2.46509799990739
C          -1.62789657118678  -23.92078604420905    3.74218642577034
C          -0.19006818738290  -23.42448282747337    3.59085967926122
C          -4.53365633015548  -22.68090144650637    3.24595197602122
C          -4.24571268366272  -21.75051335852772    4.19528504090433
C          -3.07110025316916  -20.93411784814333    4.43439433542328
C          -2.07542413473367  -20.58699452182033    3.55570569369177
C          -1.02863394929183  -19.72769516495404    3.94660851205063
N          -0.16067917803327  -19.04423344263678    4.25744781666818
C          -2.04390838942205  -20.94416269295128    2.19558133826511
N          -1.99300173276544  -21.14867569668392    1.06687458964245
C          -3.29098228085769  -20.30079415954475    5.70798739571063
C          -4.57634595519881  -20.53236763929693    6.18019231774764
C          -5.25953279031950  -21.43417930269714    5.24216318676747
O          -6.38752319430561  -21.87703756070383    5.28747357294436
C          -2.91705768617287  -23.79411023296268   -5.48754959453870
C          -4.86711588352474  -19.79067698098484    7.35627930626663
C          -3.76624481395745  -19.04666983912043    7.72731265378691
S          -2.41046934532843  -19.20548748460027    6.68777272431632
S          -2.74489548445856  -32.27782304347499  -14.19899979008641
C          -3.09066121614995  -31.60407972712409  -15.77950626694856
C          -3.40846286592911  -30.26158741197912  -15.72141656584085
C          -3.03506848738394  -32.43555040969709  -16.93381258636269
S          -3.35513166686797  -31.79021837904453  -18.52026765202833
C          -3.09326926112254  -33.32748958662145  -19.23209138611135
C          -2.77965616230585  -34.28041195290481  -18.31190647982138
C          -2.74541438032170  -33.77738052114830  -17.00141457882921
C         -12.29089278734133  -17.37274275845561   11.79764237016629
O         -13.23274559359889  -18.12459664949790   11.88837153278117
C         -10.95015010423601  -17.63524296844106   11.23869494161092
C         -10.15474950146121  -16.50863624921941   11.43311675036390
C         -10.87395737898018  -15.47325351974807   12.11041785598609
C         -10.31926456615808  -14.39823770065080   12.76242118285198
C          -8.94478182196237  -14.11597428086179   12.66069803460593
N          -7.82818252158501  -13.87048995281781   12.55579879945131
C         -11.05623309563670  -13.55337278057408   13.61267232904124
N         -11.63902835328706  -12.88092478274269   14.33847566905102
C         -12.25572209285736  -15.92419694086590   12.15536077824327
C         -13.40921786103437  -15.20941978113925   12.25841143769688
C         -13.59161374342699  -13.82819020043527   12.01992736246169
S         -12.42504714711457  -12.94399114942737   11.03379350488387
C         -13.42749524499451  -11.54561051503207   11.05752550933210
C         -14.59760489775304  -11.76586324661215   11.79364610496038
C         -14.70302183200765  -13.05505167303802   12.32980962383072
C         -15.82172497552420  -13.50301170239668   13.20738873085952
C         -15.41363534918856  -13.39694361793173   14.67910695388455
S         -15.66342002089448  -10.37712842335386   11.81203338171636
C         -14.53075539634064   -9.51913606366016   10.82453680409669
C         -13.38781840601044  -10.26200385926032   10.51076759840314
N         -12.53703303274591   -9.52403686845926    9.73423877254914
C         -11.15075015135673   -9.93030383163022    9.63689719813252
C         -13.12570548076428   -8.28614358346303    9.52921183103379
C         -14.37084714783899   -8.26119295921149   10.22351202964111
C         -15.17358741407594   -7.10013498731934   10.27260405685696
N         -16.32994919499978   -6.92271153057372   10.89234022786321
S         -16.79681317666551   -5.38834885377127   10.67792398319495
N         -15.54471543033717   -4.89124292524544    9.78175751725605
C         -14.71451162413646   -5.90951564588664    9.61881034939905
C         -13.51685541016742   -5.95772041580826    8.87161063978390
C         -12.74238325803310   -7.15073667357696    8.76859317407330
N         -11.69278931443686   -6.91246479215933    7.89750594560063
C         -10.84387771061721   -7.83141362247991    7.17320935284203
C         -11.66454647369493   -8.80899685505263    6.33555473963058
C         -11.78478171265960   -5.61385728611071    7.47991948819952
C         -12.89068647371527   -4.99144142540787    8.07010668425805
S         -13.07816963452935   -3.33433053457707    7.61146504220510
C         -11.64490610692636   -3.46780645988240    6.61713680115089
C         -11.07371672884175   -4.74598279076719    6.65065043252030
S          -9.64618666223965   -4.82264529375702    5.69070511217979
C          -9.81022690373941   -3.11653205975749    5.26990131823486
C         -10.95443507020329   -2.55117590483869    5.81507969007640
C         -11.33298157219735   -1.11635558436107    5.66986973835848
C         -10.48401895397868   -0.24049896280865    6.59425870781350
C          -8.85911233630247   -2.50592113265663    4.42022097112036
C          -7.55510539911007   -2.86588033138997    4.26466373635888
C          -6.71303349784196   -3.71027656388799    5.09260595502293
C          -6.77432648838317   -3.90938120085239    6.44944353749360
C          -5.83886698523489   -4.72761850742655    7.11151400343325
N          -5.09773345469257   -5.41471549937568    7.65573774078709
C          -7.69974961705298   -3.26971613699164    7.29617416328774
N          -8.40468070191539   -2.72217955083943    8.01840531514739
C          -5.60655459043214   -4.08404957458370    4.25654934954258
C          -5.60219593261161   -3.37409443817296    3.06282761089362
C          -6.79301342350177   -2.50701441082763    3.03497552166799
O          -7.13423047949291   -1.70215422048484    2.19529112496306
C         -10.24110919222477   -9.02377646109942   10.46139733257515
C          -4.47432115843482   -3.68525703591221    2.25530557235973
C          -3.68796284676978   -4.62602377002275    2.88969013619924
S          -4.25774864227842   -5.12293828262161    4.42823545241223
S          -8.57757582221893  -16.70593522926768   10.80106963768484
C          -9.00301730848870  -18.30170508308021   10.21437424383687
C         -10.29743532105227  -18.65730498509686   10.54954515694423
C          -8.07656106367772  -19.03563839923247    9.42064494626316
S          -6.46570512494043  -18.44144768446852    9.14970685488593
C          -6.12807037683678  -19.74001183761606    8.04341733958152
C          -7.20712071604692  -20.58301411931545    7.92632099623480
C          -8.29902288098573  -20.19335576731867    8.70519952349192
C           0.97016078080181   -3.39647290184407   -4.27636513674139
O           1.68639044187387   -4.34104183078387   -4.03820291773066
C          -0.23538892020551   -2.95173211175271   -3.56085145327272
C          -0.78414732580780   -1.86647400132925   -4.23823007589179
C          -0.02187109480334   -1.53940731954065   -5.40920380647532
C          -0.45661088040219   -0.73518957072557   -6.43695257239594
C          -1.66805927488576   -0.02486895912609   -6.33097467626152
N          -2.64701959412416    0.56707052005988   -6.23598282842471
C           0.19195253133970   -0.61491106859875   -7.67715899045480
N           0.66958008733831   -0.52103182307040   -8.71730167489834
C           1.15990108188907   -2.38383213423017   -5.35938935976834
C           2.34216706940119   -2.36217862248408   -6.03150518735880
C           2.94294494256380   -1.35062251616177   -6.81792005929837
S           4.03380946278857   -1.90034131056567   -8.08519920885617
C           4.37756169190396   -0.27450439142756   -8.53087908646920
C           3.71056780857452    0.63307900913312   -7.69828495725663
C           2.90213700271721    0.03460389350768   -6.71989672820435
C           2.21173019457386    0.79554155006633   -5.63420273908413
C           3.16869820423970    1.72707553851626   -4.88990228106527
S           4.03815642614873    2.30212842443413   -8.11025633374058
C           5.07329444898755    1.76552358021602   -9.38503939700926
C           5.16096490255797    0.37578205207166   -9.48994598825310
N           5.99494942494563    0.03653525430220  -10.51879598705266
C           6.10226143912057   -1.35636534937089  -10.88495560666126
C           6.48618483818728    1.20212785775569  -11.08107866988266
C           5.88811413443127    2.30051858609282  -10.39077606366863
C           6.10761270773320    3.64443404139664  -10.76120466366237
N           5.60163197975414    4.74433284721935  -10.22522044369211
S           6.15232230170273    6.01806677023708  -11.05851356384952
N           7.06181227979148    5.21515247397496  -12.13059248727767
C           6.96280293434637    3.91995853561667  -11.87434172887048
C           7.61037473276011    2.84206264715453  -12.51538478736965
C           7.42026624158613    1.48182110778825  -12.11993012010859
N           8.28214540389769    0.70354948524939  -12.87240953738506
C           8.57110586776679   -0.71041811124653  -12.92157019727641
C           7.83160264068715   -1.39360085533184  -14.07233060124997
C           8.96373250527551    1.52344899363271  -13.72735248481491
C           8.56644695681316    2.85043306945388  -13.53888708009854
S           9.37808417285184    3.97480905507957  -14.57076588396007
C          10.28324109755177    2.64670641061951  -15.26297763832147
C           9.95558502395831    1.40491258703027  -14.70265203410414
S          10.88726903695845    0.13616191944039  -15.40221716757835
C          11.68823592781895    1.28267259768848  -16.47688421812193
C          11.27053663008585    2.58915472656945  -16.25080056271421
C          11.73073986396159    3.77042253174276  -17.03576960272343
C          11.03628518823572    3.81077207100537  -18.39916051049062
C          12.70663319103721    0.86704387417203  -17.36065335332593
C          12.95751556404464   -0.37590222001797  -17.85568783732056
C          12.14389443535655   -1.57769044422520  -17.88976973301121
C          10.77619933543889   -1.67527494884935  -17.96081459484083
C          10.13355952421194   -2.92665592284830  -18.01642506662182
N           9.59721541749881   -3.94152976252034  -18.02904733098677
C           9.91730773381627   -0.56564487877372  -18.07505012089262
N           9.19413950850947    0.31274010862573  -18.23025105296025
C          13.06250101823640   -2.66070977067438  -18.12019709549039
C          14.33153595105503   -2.18712279170700  -18.42596793506560
C          14.32363697821225   -0.71709108518608  -18.35342499153912
O          15.21978849263565    0.05907039833220  -18.59381236138442
C           7.08642477847409   -2.10507250348371   -9.98526418738237
C          15.23907422446396   -3.21603939220372  -18.72993153243907
C          14.63876850563569   -4.43749729701483  -18.64892547177021
S          12.96692183804907   -4.36769913945642  -18.21865150115147
S          -2.21553830718235   -1.29083120614586   -3.48891083500761
C          -2.05385815619951   -2.50171347515184   -2.23188913964387
C          -0.95268716241088   -3.31477681779722   -2.42328214563204
C          -2.97862418844330   -2.56525233188672   -1.15408456893719
S          -2.70810399927671   -3.68407992853552    0.14978817937783
C          -4.13312460032925   -3.12539561525969    0.97773283551141
C          -4.76766024795615   -2.13922221312084    0.26071690107648
C          -4.11772747321495   -1.82268103214690   -0.93590869207074
H          -3.60419088737232  -26.83153753346356  -11.74463462136285
H          -0.82922690877625  -29.23574858583105  -11.46929093489000
H          -0.42502167825162  -30.17897616542028  -10.02423945300741
H           0.88856032724678  -27.53835475826604  -10.83216482488209
H           1.58531335914344  -29.14409118532910  -11.06364881594183
H           1.33497796410633  -28.52110122709210   -9.43330464341513
H          -4.40921293133848  -25.33298888822592   -5.09112776292925
H          -3.76788695900193  -25.33353894755876   -6.72380039613838
H          -4.44286045028907  -24.48252140157772   -3.36456242935427
H          -4.75834072152645  -24.64858998808928   -1.64687629747887
H          -4.49613624850089  -27.05062320788882   -3.53004999347970
H          -6.02095436635196  -26.35922202031139   -2.95946265602043
H          -4.89597963541033  -27.09481761714067   -1.81581466709537
H          -1.59793394612726  -24.96342284354135    4.07558172753235
H          -2.14750801292717  -23.34619633704177    4.51001047166710
H           0.38075216379985  -24.09485035082606    2.95454010428131
H           0.28904444446231  -23.38425784885350    4.56604623998827
H          -0.15591853644705  -22.43222743231751    3.14863564845082
H          -5.58629244052901  -22.94758028702765    3.18882555082617
H          -2.57006838589058  -23.64165076514724   -4.46833777911631
H          -3.67048248664210  -23.04600451093243   -5.71861099721562
H          -2.07209226696270  -23.65162278301674   -6.15722532360432
H          -3.69779275879044  -18.39379936281301    8.57630281954740
H          -3.66306165859522  -29.67666520247435  -16.58628104583563
H          -3.18769038079520  -33.43567725331597  -20.29425816266361
H          -2.58067212476585  -35.30637737693569  -18.56314703554639
H          -2.51911106748091  -34.36970759734139  -16.13261125909053
H         -14.31202666219824  -15.79042353417567   12.41741663533637
H         -16.08876399204124  -14.53670499563799   12.97804516287908
H         -16.68977633929426  -12.86767920284313   13.02155769176766
H         -14.54049637741400  -14.01401590396013   14.87698323395643
H         -16.22974289190391  -13.72490403267393   15.31731482384267
H         -15.16654853348717  -12.36819872562481   14.92812032408163
H         -10.83527787024088   -9.98421472182021    8.59516856077427
H         -11.09813726541999  -10.94602313018720   10.03648201693302
H         -10.16650056846798   -8.34785171047577    7.85301077557937
H         -10.22426549465634   -7.22336813861152    6.50944012535738
H         -12.35453140415004   -9.37718881875614    6.95484783578246
H         -11.00367332043145   -9.49965616672993    5.81887964463588
H         -12.24520881176901   -8.26543123228335    5.59372116021627
H         -12.38724878651866   -1.00645375216047    5.93038220810944
H         -11.19221683175700   -0.79646719633144    4.63496240840104
H         -10.59474058667141   -0.56364773048598    7.62580970061470
H         -10.79677320701069    0.79718654038415    6.51509872015978
H          -9.43247328552570   -0.31301928892858    6.32694764092160
H          -9.21896638397644   -1.71555494703142    3.76923875830142
H         -10.31487810237109   -7.98747649622537   10.13979376612850
H          -9.20918447537886   -9.35015159671255   10.36553825303432
H         -10.52148663363001   -9.07375565616696   11.51102484544990
H          -2.77409233879031   -5.04505801996744    2.51450752377246
H         -10.74175932587391  -19.60227542955759   10.29991831365994
H          -7.21077958675958  -21.43940305559768    7.27722649573507
H          -9.23145474242450  -20.72663665359984    8.72701649524768
H           2.93659614473126   -3.26434536118447   -5.90810373869166
H           1.77935424250669    0.09539615911141   -4.91828673207797
H           1.40026852789876    1.38730242498227   -6.06957918052055
H           4.00635788074628    1.16268667994781   -4.48588371404422
H           2.64413267164634    2.20491466897115   -4.06637734228378
H           3.55383638743430    2.50148306542061   -5.54642545065218
H           6.36261515636392   -1.44128831585345  -11.93616077139652
H           5.10900307227715   -1.79945961071793  -10.75714378209089
H           8.35006700826884   -1.17147104356019  -11.96436643231165
H           9.64864632514471   -0.80869308508666  -13.09224351444037
H           8.16535892679713   -0.98846484502261  -15.02452411598894
H           6.75683025029794   -1.23795649252414  -14.00415044400473
H           8.03548742710956   -2.46063077084775  -14.06381702971141
H          12.81256516998183    3.72764247013994  -17.17971557350013
H          11.48880065003955    4.67587440800960  -16.47608928449446
H          11.27370892496652    2.91869053178271  -18.97393970766897
H          11.36024071959282    4.68536192289017  -18.95692904055876
H           9.95791257946120    3.85697629519578  -18.27113364885675
H          13.44419528924693    1.62092820211958  -17.62012729423980
H           8.05311193730699   -1.60642320319314   -9.94780986932314
H           7.22410734684683   -3.11851265317002  -10.35155350711817
H           6.69827463634383   -2.15683602448659   -8.97150710564675
H          16.26844914232408   -3.06228145270464  -18.99562069476910
H          15.08136764936637   -5.39793121160224  -18.82769319208200
H          -0.69384066221863   -4.12388048881109   -1.76496089928194
H          -5.67031091768570   -1.66322415144329    0.59967763116671
H          -4.46184804100546   -1.07328279359116   -1.62670993150679
