194
 SCF done       -365.051028850468          0.000491338989
C           7.08559977862862   -0.16412742796420  -12.66403834640949
O           6.07758814273327    0.18906741265171  -13.24270351494506
C           8.01081645486853   -1.23279295996833  -13.00415081862201
C           9.03084369165287   -1.32176677798021  -12.00320933752688
C           8.78278863096641   -0.31731661369014  -10.98705491935958
C           9.37218957748158   -0.29346472599507   -9.74500631253309
C          10.40874835639344   -1.18435144674365   -9.40584944609363
N          11.26930025281606   -1.89173030547797   -9.12885673633772
C           8.95270158381503    0.54181728077278   -8.69477034518388
N           8.61306158783433    1.19830777524076   -7.81600018232199
C           7.67717381401440    0.48333681340466  -11.45088544065540
C           7.14311239858981    1.66627741020700  -11.03010111288516
C           7.66823754565275    2.71340524832678  -10.24180607088132
S           6.46787284889323    3.71457691449088   -9.42099265655024
C           7.69261956665085    4.78080479976887   -8.85129952991686
C           8.95207949223759    4.38346537538277   -9.31510422986752
C           8.95717579482208    3.21518699458618  -10.08764442412799
C          10.19998851438769    2.74120358156036  -10.76878096605112
C          10.10595685836463    2.86688233443127  -12.29017734783384
S          10.23180412977518    5.49351593287879   -8.87742038112586
C           9.06037129721010    6.49158686053272   -8.08956871380006
C           7.75983400743684    5.97652317957169   -8.12927859319675
N           6.89593411722583    6.83932152826937   -7.51274035693058
C           5.47057326278931    6.65280162370982   -7.65256373098111
C           7.61884906576052    7.94882708584691   -7.11037521943978
C           8.98108678257737    7.75127169273802   -7.47991399408412
C           9.94451599352727    8.77755902132749   -7.35845332897148
N          11.23082333809004    8.74462899411061   -7.66788669748122
S          11.84888739062148   10.22465243858704   -7.44997163993960
N          10.49693538032425   10.96673885966406   -6.95830957370977
C           9.51492445533558   10.07957740424226   -6.93915269172652
C           8.17346925786411   10.25811633451374   -6.53461315616313
C           7.24477016641520    9.17810811630175   -6.50626358070779
N           6.06114392694208    9.63399605564257   -5.94626042075470
C           4.99706122424659    8.89503619585963   -5.30010740665135
C           5.54222836004247    7.89456926190850   -4.28536381709416
C           6.21294710306870   10.97022624679903   -5.68656852091128
C           7.49548551334331   11.38944021163086   -6.05961446073411
S           7.75673552396220   13.08791072400884   -5.87956025959440
C           6.10939008464624   13.25347695116258   -5.32036222218012
C           5.42630174496029   12.03201412701896   -5.23222929534598
S           3.81383210254747   12.25610390648865   -4.66281854459933
C           4.04337720101302   14.00646215722614   -4.64417619691087
C           5.32495030379304   14.37283111796533   -5.03080869594451
C           5.82066146265469   15.77877493780774   -5.05586236484556
C           6.04729366665635   16.30212305176371   -3.63622719431781
C           2.94605019196521   14.86529479704971   -4.42483014305020
C           1.83268901083552   14.67021321754848   -3.66050994923563
C           1.59065201657580   13.82530676431051   -2.51275632169576
C           2.51568089155756   13.23601696555590   -1.68643761315179
C           2.12149623957325   12.47956895070976   -0.56597705715092
N           1.81571499206058   11.84305842207086    0.33932410557294
C           3.90907081303585   13.38658347029333   -1.80197307520172
N           5.04879535989320   13.52916085141602   -1.82010442383366
C           0.16820230171570   13.90140089154495   -2.23007264123781
C          -0.44764864194127   14.78938467876069   -3.16575017710654
C           0.57874369395586   15.39515326199681   -4.01648982359628
O           0.46479599771167   16.27821784243250   -4.83800810177615
C           4.86394951942040    7.66052957601676   -8.62587577620690
C          -1.79302090306287   14.95474971191306   -2.97339111737416
S          -2.29817027437973   14.03029847258193   -1.57191921549050
C          -0.70539867206775   13.42095645549166   -1.30377327252600
C           9.92883442961586   -2.31319716858934  -12.24077596010106
S           9.55251079218309   -3.15244003594093  -13.70347979491711
C           8.13944314280472   -2.15554529461814  -14.01424843253973
C           7.34604360661915   -2.35140399764870  -15.17306638306670
S           5.97551310020650   -1.33561813039103  -15.53295143942670
C           5.69401889451543   -2.19099480902531  -16.98575623006984
C           6.58870400289733   -3.20265336629774  -17.18735715199837
C           7.53179882958736   -3.29833271233025  -16.15808588549940
C          -3.19373222909404   14.68578978806142   -8.60151325275601
O          -2.38533483299277   14.13755779935747   -7.87769644288877
C          -4.10457566710730   15.77560156981974   -8.29141384166106
C          -4.88679937175058   16.09318131608996   -9.44614274959224
C          -4.54713419466914   15.16523632557375  -10.51142638958966
C          -5.33151301452367   14.92759271253940  -11.61296836836632
C          -6.41743452848455   15.76236480256001  -11.93874688675687
N          -7.29170274430828   16.44796919068194  -12.22696542476398
C          -5.19178689756627   13.79798505360253  -12.43702378841628
N          -5.13575971354657   12.85588013127930  -13.09165204001875
C          -3.43000963546392   14.37559798705748  -10.04155653915081
C          -2.61763182978432   13.44719256625430  -10.62159720647288
C          -2.34955783289562   13.08387313616390  -11.96051395780478
S          -1.87959954118945   11.39755470164397  -12.17396098886489
C          -1.62747416735751   11.65311912961889  -13.85423262375401
C          -1.84926629228428   12.99107500903689  -14.20683840287201
C          -2.26542726300047   13.80787163390890  -13.14412934685785
C          -2.40172013234178   15.29462690697011  -13.24802433130563
C          -3.32790750529020   15.74181367396528  -14.37874702438923
S          -1.51384351244544   13.30617062839346  -15.89675473012976
C          -1.08792385045071   11.64331372680988  -16.10971600588259
C          -1.21012307568485   10.88330984337828  -14.94251695298990
N          -0.84606699521702    9.58730350565641  -15.18269848119403
C          -0.61381209012810    8.69425103004280  -14.07106413749394
C          -0.46079489492008    9.49395459566556  -16.50886693497488
C          -0.59180657782019   10.78484973389278  -17.10151475080683
C          -0.16573794641955   11.04711892655641  -18.42238657095080
N          -0.20386693768579   12.18897704782134  -19.09103941068991
S           0.48482869719926   11.95965600653542  -20.53746825416457
N           0.86164063234326   10.39504061509827  -20.36574785331519
C           0.45621201408015    9.99473211018089  -19.17077507630953
C           0.53175314430323    8.70403211330103  -18.60223491157617
C           0.01340907200255    8.41778602902126  -17.30527908758225
N           0.14774973787427    7.05749033041819  -17.07379908930939
C          -0.56302157089762    6.19071936348263  -16.15774587248356
C          -2.07458286959666    6.33699223610601  -16.30950044812090
C           0.75234722053439    6.50740046187465  -18.17187614425804
C           1.01361333413530    7.49582546780876  -19.12551909532786
S           1.79054712732084    6.89615879317589  -20.54816804871781
C           1.76448522505471    5.28509579853599  -19.86365630982969
C           1.18775781284933    5.24601564206240  -18.58681616642586
S           1.25066681693516    3.66219702190315  -17.92113002045268
C           1.98123457168939    3.04057665163197  -19.39923457382987
C           2.20888981517930    4.04237328174475  -20.33657701478511
C           2.98678823999028    3.88588049503797  -21.60628380026161
C           2.25150651695630    4.42941282106058  -22.83162936428370
C           2.31548064598315    1.66563501028193  -19.38627538382522
C           2.36130754152424    0.75663863350629  -20.40121370358547
C           1.80416147556293    0.77459992245228  -21.73855769731770
C           0.72064169418218    1.48654708541484  -22.18353701972939
C           0.24015632654239    1.33848698601372  -23.49992488896851
N          -0.14441487392052    1.23977743975389  -24.57664250554290
C          -0.04661424410100    2.35094013606743  -21.38149242435201
N          -0.72679928108707    3.03404080640138  -20.75760026260437
C           2.43158796184612   -0.31150604678294  -22.46766944649337
C           3.20482947083054   -1.10139501796445  -21.55380538028080
C           3.12673045005607   -0.50775076834362  -20.21289844668931
O           3.60003163771907   -0.91745538331937  -19.17563300359239
C           0.87664412284484    8.44333354643188  -13.85536703984795
C           3.79371395536624   -2.17242997104108  -22.14355369517488
S           3.42141018623677   -2.22654411810683  -23.82689248838583
C           2.45134831743796   -0.80213689623768  -23.73554862594307
C          -5.80903098103183   17.06461600096380   -9.20911151385517
S          -5.74796754439172   17.59597479293688   -7.56604104406972
C          -4.45649004877865   16.47995424012802   -7.16513885902620
C          -3.96171736133446   16.32661329953142   -5.84187279395510
S          -2.51091779073325   15.42527265979587   -5.54127971177930
C          -2.72211335119643   15.61805274018679   -3.83430136241617
C          -3.86016747224327   16.33218780529212   -3.52884719962924
C          -4.54508296688207   16.75810510600938   -4.66506290819808
H           6.15008485238614    1.85913105943848  -11.43150515834540
H          10.41705483905560    1.70481732723469  -10.50276839315252
H          11.02976573579102    3.35367188909108  -10.40895708671911
H           9.29062487086855    2.26597298546713  -12.68547503243506
H          11.03456817045867    2.53251340906245  -12.74555390863639
H           9.93665399665253    3.90372308358297  -12.57130619125124
H           4.98414302334789    6.69267826067349   -6.67786274275102
H           5.32630080841073    5.64277035076957   -8.04406977256230
H           4.35738221439507    8.40987172247029   -6.03948980866885
H           4.38060282368932    9.63355532232218   -4.78117232013386
H           4.72057410561054    7.35809921809324   -3.81865116926333
H           6.09802655921654    8.41701125369543   -3.51026757630756
H           6.20962686830094    7.17608734970926   -4.75527823177052
H           5.09457750431908   16.41748468917284   -5.56536153520840
H           6.76030735334844   15.80611800768533   -5.61075092956532
H           5.11000390454508   16.32597504677431   -3.08543921250393
H           6.46059891165791   17.30665280488090   -3.67043604989461
H           6.73770281430934   15.65530077496181   -3.10175051647087
H           2.93118110780484   15.76944182408806   -5.02943666216011
H           5.04802414369758    8.68195129349115   -8.30154629393409
H           3.79150840905991    7.50275382524585   -8.70132653486316
H           5.30312940237861    7.53245834332725   -9.61249271984695
H          -0.53325842729320   12.75201018262204   -0.48428029716946
H          10.78862921994299   -2.60912796632794  -11.67371406765881
H           4.88450105530607   -1.89412732502818  -17.62365115542991
H           6.57054638066240   -3.85339334060032  -18.04306950529279
H           8.32548051095580   -4.02413747367449  -16.12359930585496
H          -2.04763059156771   12.87700522343983   -9.88919157065690
H          -1.40355380085417   15.70367770685370  -13.43827306709531
H          -2.74388421529062   15.69962498466960  -12.29554965945216
H          -2.90583642527617   15.48057070832434  -15.34526043200554
H          -3.45844624555589   16.82054184778353  -14.34033237859525
H          -4.30426028396261   15.27152463027186  -14.29821455834332
H          -1.16596358225075    7.76441553997551  -14.20552434793106
H          -1.02627550020495    9.18553461961069  -13.18649595653080
H          -0.23901655271724    6.36309524068822  -15.13138379957002
H          -0.27533791893257    5.16846261471956  -16.41456951628768
H          -2.39388415451964    7.36192907826269  -16.13519098632522
H          -2.58176804435482    5.68496213908921  -15.60359272283283
H          -2.37399721289713    6.05508227572319  -17.31617308398263
H           3.24701150597546    2.83760139485642  -21.75568219994134
H           3.92169028170350    4.44432236044877  -21.49113159218453
H           1.26040939136893    3.99373233595464  -22.92647621796288
H           2.81693813102282    4.19990851210457  -23.73145184358108
H           2.13830166848153    5.50766042573837  -22.76189964736581
H           2.61170981478960    1.27147304080077  -18.41709289191965
H           1.34083846051854    8.03066353659102  -14.74793770111856
H           1.02035324423764    7.75054468630478  -13.03065725450187
H           1.37803442296517    9.37764383448477  -13.61363369353635
H           4.41475082406339   -2.92788211903161  -21.70568587709104
H           1.97761921947041   -0.42671119796884  -24.62040865712065
H          -6.52159783426642   17.50820537148460   -9.87558493260603
H          -4.16814753133898   16.54454646043621   -2.52052986265719
H          -5.45112945424081   17.33782059517539   -4.64534857460572
