194
 SCF done       -365.040212363795          0.000777580114
C           4.95110352710368    2.91955813778407   -2.22299220327268
O           4.22886824117408    3.47437694476372   -1.42804036715256
C           5.52191063611500    3.44463157690080   -3.47316359722152
C           6.24533492477707    2.42992577477134   -4.09369249478792
C           6.17778676063092    1.20363464086667   -3.35459406248221
C           6.51340702755619   -0.03179149386107   -3.85654934235557
C           7.13680628906778   -0.14864517914046   -5.11479505683108
N           7.66427460655784   -0.24558434342842   -6.12970673416685
C           6.20014042992792   -1.26381192836875   -3.25797716645411
N           5.92312892605968   -2.30136366598547   -2.85047803828150
C           5.49680808204559    1.53136655810983   -2.11097995113793
C           5.34772454692385    0.84649744755692   -0.94787316739392
C           6.02358810533878   -0.31483238705232   -0.49308522173834
S           5.09019011928719   -1.43872736763428    0.48834605053927
C           6.44485168383765   -2.49378107394034    0.60930298418520
C           7.57054893213934   -1.95062196934501   -0.01941102690690
C           7.34133365866497   -0.71630723881341   -0.64884842877556
C           8.41944233651645    0.09480347787945   -1.29246818470628
C           9.57578305848013    0.36311000982063   -0.32873727128983
S           8.97558411953538   -2.98692784936812    0.07884103569913
C           8.03581711543059   -4.14669398676220    0.94938736116407
C           6.70941404298506   -3.75569220548986    1.15300718693251
N           6.03149382584413   -4.72849506951454    1.83466493889487
C           4.76169150807706   -4.41343622879875    2.45088853588600
C           6.91754439943293   -5.76296267861894    2.08816774249419
C           8.19072900041479   -5.39854027491822    1.56106714466207
C           9.34065402338919   -6.19339673418449    1.76199729309087
N          10.58245665970225   -5.96550786544494    1.36411834569887
S          11.52678342558139   -7.15457848892190    1.92387328699422
N          10.38742827984543   -8.00787952810282    2.69511308749682
C           9.22624545053572   -7.39168323489442    2.53995388840725
C           7.94802473385965   -7.79532053687649    2.98499547774966
C           6.77557908265941   -7.03255730256215    2.70889036802947
N           5.67742431196142   -7.74772757282187    3.15632135750010
C           4.27855909418618   -7.62464275863260    2.81063952008512
C           4.06591915391085   -7.69436492613015    1.30063656886859
C           6.13501926255971   -8.91133311926661    3.71278918655361
C           7.53251443521855   -8.96156916953775    3.64197258117796
S           8.21582358983743  -10.39167242090672    4.33078675377361
C           6.60212578983529  -10.94919186361683    4.71203003655217
C           5.60109021126387  -10.05061662255974    4.31699777099692
S           4.03375132292649  -10.65063904409647    4.70518865826004
C           4.73666141093912  -12.11406996767144    5.40029016516617
C           6.12375471587998  -12.12041819375227    5.30529933370720
C           7.00069678533074  -13.18950488226669    5.86226472078005
C           7.14645851577848  -13.02127033337253    7.37677760484144
C           3.91105805668431  -13.16650533714597    5.84534201038349
C           2.59668776916237  -13.11108897241697    6.20156406204825
C           1.75953770634791  -11.98328932822450    6.55836663016523
C           2.13069263790962  -10.82272208796885    7.19061661722017
C           1.18426453124156   -9.83709510400375    7.52838884027917
N           0.41788035434729   -9.02102137830805    7.78227331350443
C           3.44687218081291  -10.56626806090465    7.61963675440900
N           4.50251291561749  -10.36414694663562    8.02324021816506
C           0.40818243247479  -12.43021743852426    6.35327464792851
C           0.35761519515837  -13.79011690875735    6.08022046643727
C           1.73278730513237  -14.31832257907980    6.08249718555938
O           2.11329934299477  -15.46380268923305    5.97264110306196
C           4.88237918552752   -4.32500584488602    3.97005348263223
C          -0.96674284121947  -14.24767662490337    5.84849204185740
C          -1.85673147665519  -13.20242611952202    5.98209188397961
S          -1.13803387658877  -11.69678715700836    6.38542356426640
S           6.91768246317412    2.93286579212916   -5.58819224356168
C           6.23313573504793    4.53117270054274   -5.36819859059124
C           5.51318309026125    4.63859321918699   -4.19478354718534
C           6.44315473882901    5.53550933533707   -6.35506388245265
S           5.78210719735085    7.13591397245728   -6.16129414655111
C           6.45538142696540    7.62860330094326   -7.65869163218790
C           7.14629148093318    6.62911613462575   -8.27274224540047
C           7.14198112393816    5.43487448435730   -7.53434833991191
C          -4.90600823715423  -21.49604328239381    2.29273060427951
O          -4.43320165120861  -22.59834453504392    2.44584752548413
C          -4.47082645009850  -20.21715510511846    2.87824824691166
C          -5.30077313486467  -19.20294128958038    2.40353556163077
C          -6.24245350752031  -19.69637306211552    1.44574399119885
C          -6.91127284309566  -18.90359999053647    0.54474039314418
C          -6.86757200305966  -17.49850731422952    0.66228667210863
N          -6.85654697132570  -16.35549978503752    0.76683034787925
C          -7.57881752396107  -19.33310802363194   -0.61636106206893
N          -8.07028309152593  -19.56963315862290   -1.62769322717930
C          -6.10274871821768  -21.14834038259028    1.46880736613989
C          -6.87291220685913  -22.11312119486733    0.91176559562179
C          -8.16626224696291  -21.94847200624603    0.33408201290426
S          -8.44839479541125  -22.71227802208326   -1.22368005486372
C         -10.01365400217005  -22.00051302432060   -1.30547281436316
C         -10.32799767124819  -21.31810368049828   -0.12559797511913
C          -9.27431948786875  -21.26682025918151    0.80430080900472
C          -9.38993915321115  -20.67057944646764    2.17387452957452
C          -9.89541666468968  -19.22865113220314    2.17255443003749
S         -11.92222535308493  -20.59804160087931   -0.16134748434817
C         -12.11333295014772  -21.14582619627809   -1.78959067251558
C         -11.02638931191228  -21.88170892979654   -2.26360762837797
N         -11.21705881489726  -22.21098801946012   -3.57688936616661
C         -10.08747478964204  -22.71232892725807   -4.32574772411318
C         -12.41696901356856  -21.65221837050001   -3.98801511772306
C         -12.99847394221709  -20.99093073749932   -2.86496447026395
C         -14.20084423837577  -20.25735274304418   -2.95372693776802
N         -14.84532145656754  -19.60540181169936   -1.99842683752481
S         -16.13534717487931  -18.88080696822112   -2.65571862516714
N         -15.91987052654206  -19.37018603214782   -4.18401832588503
C         -14.83097202037193  -20.12181261722656   -4.23182302068356
C         -14.26319481520108  -20.78242072791694   -5.34213820611901
C         -13.09719741751512  -21.59813288045449   -5.23711710068522
N         -12.83703910736779  -22.13198788088402   -6.49002508708715
C         -12.02570694674887  -23.25812365259445   -6.89376943550666
C         -12.48274338368575  -24.54581563147966   -6.21194549528258
C         -13.78612507827838  -21.65977691717296   -7.35560336999654
C         -14.67426083407756  -20.81904240064262   -6.68115057318205
S         -15.89903593266926  -20.14331713867274   -7.69525933746785
C         -15.21379203479930  -20.99853811938016   -9.05927443136492
C         -14.08765108002933  -21.75738493653462   -8.71785643136396
S         -13.40344715529823  -22.51243794977070  -10.10448879231880
C         -14.67735992755309  -21.85401148653121  -11.12686269879989
C         -15.56077270624518  -21.05208639069282  -10.41786346542669
C         -16.63274764399824  -20.19285611934238  -11.01358367547705
C         -17.99944263362112  -20.40025641654399  -10.36072252934409
C         -14.56580782095014  -22.12051475582147  -12.51584638470953
C         -15.53491964353480  -22.28694388402092  -13.45316890216829
C         -16.95855807082106  -22.54886256726159  -13.33485410274041
C         -17.62841064117791  -23.13918979509530  -12.29339987614284
C         -19.01150771607642  -23.39829950710948  -12.37592366298901
N         -20.14054901985226  -23.59582297974378  -12.43185947895246
C         -17.01642945800895  -23.60590962957925  -11.11574673129541
N         -16.56452446608995  -24.04363406473343  -10.15538889595119
C         -17.50927585498612  -22.30782930652478  -14.64226201576675
C         -16.50844826520616  -22.08596297924623  -15.57908507888236
C         -15.20289393667665  -22.13348912716507  -14.90349709927166
O         -14.09665871437885  -22.03859935359571  -15.38256704828954
C          -9.39688766766228  -21.59144528617441   -5.09902613777359
C         -17.00896677231245  -21.90240278363710  -16.87913902703420
C         -18.36961754980010  -21.98919077412671  -16.89577225953108
S         -19.06951436318417  -22.30607798736434  -15.34863723486925
S          -4.83228010710095  -17.65933826539117    2.97737669138999
C          -3.49677057337591  -18.37827799186685    3.85360597259512
C          -3.44427237424685  -19.75183450112378    3.70019293370893
C          -2.57671638183349  -17.53502292677058    4.53860095240823
S          -2.91548462453614  -15.84229540918885    4.74150976570576
C          -1.35919529024376  -15.57647177132771    5.46698722737645
C          -0.64424950832527  -16.74706799036187    5.55172038065514
C          -1.33123661204893  -17.85051605114319    5.03895283338604
H           4.61334841971818    1.26475009115454   -0.26471897805004
H           8.01117027971554    1.04931662795168   -1.62748894205331
H           8.79810332864626   -0.44390234088539   -2.16696710456397
H           9.21410780726055    0.87438356434464    0.56073129005818
H          10.31674079822143    0.99370508514100   -0.81336395104810
H          10.05666261999476   -0.56307417469862   -0.02775340063480
H           3.99736393779950   -5.12913907405586    2.14751586805918
H           4.46026265933469   -3.43963585820178    2.05721021662735
H           3.85530210394665   -6.71492154419444    3.23687244210649
H           3.76716539951765   -8.46595179520787    3.28506600513481
H           3.00931674679317   -7.58773212494744    1.07071551678094
H           4.40691149347670   -8.65502275479223    0.92141707304702
H           4.61898541171300   -6.91234492573772    0.78610631925158
H           7.98244850316097  -13.11779448366058    5.39048825147521
H           6.57891570684736  -14.17303066312207    5.64447174038162
H           7.57653251248739  -12.05025893038020    7.60786819494320
H           7.79506002332619  -13.79568497256144    7.77740484236244
H           6.17572406891475  -13.08763794681500    7.86222591356761
H           4.34007869781809  -14.16267858523174    5.79775047963502
H           5.24891906368163   -5.25688940975141    4.39406472635574
H           3.91320334345693   -4.09806326577862    4.40568411623962
H           5.57726268986787   -3.53375192934350    4.24168024168000
H          -2.92203705327170  -13.25637151948333    5.86466514528298
H           5.00836103171953    5.53753408396658   -3.89145089539208
H           6.29937261536732    8.63337480455420   -7.99771859798846
H           7.64045707047573    6.74349925717138   -9.22039855213579
H           7.62959341779998    4.52887208494503   -7.84795284955985
H          -6.45032231113955  -23.11308776136813    0.89848920208083
H          -8.42368386848231  -20.72839706508344    2.67843712657364
H         -10.09706767295422  -21.28256426397500    2.74320628060323
H          -9.27069852056099  -18.58795411738193    1.55529946898390
H          -9.88848807006418  -18.83776060893389    3.18712475285790
H         -10.91136765474026  -19.17790117051573    1.79146225617302
H         -10.39035422372719  -23.53375967333835   -4.97167253332227
H          -9.38791158033868  -23.12328005224194   -3.59347639315695
H         -10.96987050834031  -23.05333257159149   -6.71951071920002
H         -12.15536092128813  -23.36152899185471   -7.97385392662603
H         -12.46373052969283  -24.44721447653005   -5.12864503392756
H         -11.83839670574084  -25.37072706487991   -6.50388829958306
H         -13.50127380127807  -24.78009861588568   -6.51237852009344
H         -16.69545483905674  -20.36871629200722  -12.08806206256543
H         -16.33755534662436  -19.14875167839541  -10.86642989713159
H         -18.29499773287574  -21.44596793760955  -10.37895508799806
H         -18.75179542238220  -19.81997524232952  -10.88927882824330
H         -17.97939877045913  -20.07593819646084   -9.32402822331925
H         -13.55067670952410  -22.16260737226689  -12.90223141935850
H         -10.08909084567779  -21.10104485039523   -5.78035636143318
H          -8.56188231441974  -21.99068127748255   -5.66842135845741
H          -9.01741991130105  -20.84680653178075   -4.40313433968994
H         -16.40143360429147  -21.71966760820175  -17.74591749445630
H         -19.02146290515049  -21.89016285263836  -17.74171259398817
H          -2.69720276869134  -20.37659081394250    4.15234592276110
H           0.35141209122566  -16.79356587975402    5.95415584177699
H          -0.92179000834676  -18.84353177098277    5.00955333043325
