# ORCA input file
# SCF done       -299.201766950897          0.000691385924
! wb97x-d3 def2-SVP def2/J RIJCOSX Grid4 TightSCF
%maxcore 5000
%tddft
    Mode sTDA
    Ethresh 5.0
    maxcore 5000
end

%pal
  nprocs 6
  end
* xyz 0 1
   C       -1.98755         6.11339         6.30464
   C       -1.13836         6.84809         7.17493
   C        0.21609         7.01585         6.91342
   C        0.71190         6.40823         5.74162
   C       -0.14428         5.69916         4.87182
   C       -1.49648         5.54379         5.12334
   C       -3.32532         6.03452         6.79650
   C       -3.50114         6.68170         7.96336
   S       -2.06128         7.43108         8.55319
   C        2.04935         6.42269         5.27588
   C        2.22311         5.75606         4.09827
   S        0.71987         5.06872         3.49990
   O        1.14468         7.68741         7.63230
   O       -2.29593         4.81449         4.27477
   C        3.42894         5.58452         3.36233
   C        3.60482         4.97363         2.14129
   C        4.92765         4.99092         1.69585
   C        5.79517         5.60780         2.56915
   S        4.93943         6.18398         3.97737
   C        7.20816         5.80743         2.44254
   C        7.96819         6.35805         3.46476
   C        9.33807         6.57020         3.36241
   C       10.06898         6.26330         2.22371
   C        9.33521         5.69414         1.14843
   C        7.91617         5.45972         1.26008
   N        9.80781         5.30727        -0.03479
   S        8.60182         4.71282        -0.91574
   N        7.41795         4.91413         0.15265
   C       11.47792         6.51133         2.13456
   C       12.30582         6.40159         1.04031
   C       13.63234         6.74602         1.30673
   C       13.84987         7.11629         2.61422
   S       12.37499         7.04684         3.53164
   C       -3.16192         5.57740         3.44697
   C       -2.41278         6.36754         2.37995
   C        0.79973         8.36503         8.82540
   C        2.06214         9.03858         9.34053
   C       16.64792         8.11832         4.83559
   C       17.46264         8.16854         3.67006
   C       18.79826         8.54212         3.72115
   C       19.31960         8.85457         4.99518
   C       18.51386         8.76248         6.15126
   C       17.17955         8.40207         6.10250
   C       15.30683         7.76336         4.54615
   C       15.07152         7.50933         3.22845
   S       16.51562         7.71275         2.25992
   C       20.64255         9.25505         5.30010
   C       20.85835         9.45128         6.63362
   S       19.41095         9.15938         7.58742
   O       19.69169         8.64644         2.71006
   O       16.40877         8.37805         7.23945
   C       22.06670         9.82826         7.28351
   C       22.32736         9.85292         8.63512
   C       23.62971        10.24777         8.94354
   C       24.39063        10.54933         7.83654
   S       23.46282        10.32532         6.37521
   C       25.74747        11.00831         7.78532
   C       26.31928        11.50645         6.62352
   C       27.62285        11.98843         6.56627
   C       28.47694        11.99300         7.65953
   C       27.94583        11.46365         8.86677
   C       26.58607        10.98818         8.93251
   N       28.56616        11.34800        10.03928
   S       27.55321        10.70776        11.11127
   N       26.27642        10.54495        10.14915
   C       29.81073        12.51380         7.58846
   C       30.81261        12.43509         8.53001
   C       31.99369        13.06878         8.14447
   C       31.91937        13.65672         6.89975
   S       30.35592        13.39863         6.18925
   C       16.09984         7.08718         7.74639
   C       17.30971         6.39435         8.36289
   C       19.29901         8.45062         1.36510
   C       20.51891         8.71379         0.49627
   C       34.95604        15.47196         5.78169
   C       34.19380        15.93464         4.67298
   C       34.71270        16.82716         3.74469
   C       36.03630        17.26825         3.96116
   C       36.79387        16.77959         5.04833
   C       36.28727        15.87576         5.96346
   C       34.21177        14.62714         6.64120
   C       32.92737        14.41278         6.23429
   S       32.57835        15.24360         4.73511
   C       36.76392        18.20299         3.18586
   C       38.02694        18.43139         3.65140
   S       38.38592        17.47743         5.08387
   O       34.12052        17.35038         2.64643
   O       37.03998        15.45236         7.03292
   C       39.01227        19.31844         3.13601
   C       40.29101        19.52295         3.60374
   C       41.00199        20.48120         2.88058
   C       40.28423        21.03435         1.84410
   S       38.68469        20.33832         1.76723
   C       40.69207        22.04565         0.91379
   C       39.84605        22.52516        -0.07481
   C       40.21828        23.51516        -0.97927
   C       41.46861        24.11285        -0.97571
   C       42.37493        23.65017         0.01534
   C       41.99006        22.62437         0.95381
   N       43.62624        24.05946         0.21798
   S       44.25442        23.24570         1.45276
   N       42.97782        22.33269         1.79757
   C       41.82799        25.14138        -1.91282
   C       43.01047        25.82797        -2.02629
   C       43.00545        26.77729        -3.06359
   C       41.82529        26.81440        -3.73761
   S       40.68964        25.68788        -3.11850
   C       37.54661        14.12871         6.93699
   C       38.62196        13.98532         5.86607
   C       32.78253        17.03028         2.31542
   C       32.44165        17.78305         1.03890
   H       -4.10077         5.48795         6.29120
   H       -4.39785         6.77489         8.54403
   H        2.84755         6.91309         5.80270
   H        2.78847         4.53406         1.59578
   H        5.25952         4.56881         0.76557
   H        7.46964         6.63464         4.38239
   H        9.85813         7.00229         4.20517
   H       11.94363         6.08170         0.08112
   H       14.42112         6.72532         0.57517
   H       -3.76894         6.26109         4.05573
   H       -3.81710         4.83580         2.98358
   H       -1.78007         7.12393         2.84041
   H       -3.12439         6.85923         1.72230
   H       -1.78576         5.70043         1.79392
   H        0.41887         7.65426         9.56925
   H        0.02506         9.11571         8.62561
   H        2.82840         8.29289         9.53370
   H        1.84318         9.57346        10.25970
   H        2.43852         9.73855         8.59954
   H       14.53470         7.71642         5.29344
   H       21.40418         9.38068         4.55219
   H       21.58715         9.58399         9.36788
   H       24.02020        10.31930         9.94148
   H       25.71739        11.53310         5.72674
   H       27.98913        12.37873         5.62757
   H       30.67497        11.93151         9.46858
   H       32.87413        13.10986         8.75944
   H       15.67394         6.45631         6.95500
   H       15.33621         7.26939         8.50632
   H       18.06189         6.19398         7.60242
   H       17.00381         5.45244         8.81013
   H       17.75063         7.02752         9.12858
   H       18.49012         9.14329         1.10204
   H       18.94507         7.42250         1.21814
   H       20.86884         9.73138         0.64644
   H       20.26135         8.57425        -0.54930
   H       21.31917         8.02891         0.76272
   H       34.62070        14.22207         7.54840
   H       36.35565        18.69010         2.31908
   H       40.68603        18.98720         4.44885
   H       42.01183        20.77671         3.09592
   H       38.85006        22.11194        -0.14235
   H       39.49746        23.83545        -1.71762
   H       43.84601        25.64427        -1.37728
   H       43.84421        27.40788        -3.29918
   H       41.54700        27.43711        -4.56464
   H       36.73066        13.42015         6.74015
   H       37.96389        13.92632         7.92630
   H       38.20246        14.16991         4.87899
   H       39.03035        12.97868         5.89049
   H       39.42155        14.70026         6.04243
   H       32.10801        17.33469         3.12512
   H       32.67847        15.94960         2.15690
   H       32.54897        18.85236         1.19869
   H       31.41851        17.56550         0.74767
   H       33.11344        17.48281         0.23947
*
