# ORCA input file
# SCF done       -487.127209946618          0.000836266558
! wb97x-d3 def2-SVP def2/J RIJCOSX Grid4 TightSCF
%maxcore 5000
%tddft
    Mode sTDA
    Ethresh 5.0
    maxcore 5000
end

%pal
  nprocs 6
  end
* xyz 0 1
   C       -0.35053         5.21532        -0.07653
   C       -0.74202         4.08839        -0.82213
   C        0.11978         2.97344        -0.93948
   C        1.37946         2.91408        -0.34934
   C        1.78783         4.06267         0.35713
   C        0.92352         5.17845         0.47695
   C       -1.96110         3.88778        -1.53490
   C       -2.03107         2.67983        -2.12889
   S       -0.62469         1.70491        -1.87774
   C        3.02474         4.29036         1.00376
   C        3.10756         5.49833         1.63191
   S        1.64855         6.44594         1.43274
   C       -1.24509         6.34090         0.11439
   C        2.21644         1.73643        -0.44736
   C       -2.57209         6.31949         0.43653
   C       -3.13676         7.60540         0.55737
   C       -2.25100         8.60984         0.31772
   S       -0.67917         7.97867        -0.05010
   C        2.39922         0.90988        -1.52162
   C        3.29331        -0.14804        -1.26652
   C        3.78263        -0.15196         0.00417
   S        3.14182         1.16962         0.91731
   C       -2.47313        10.08161         0.38142
   C       -1.80402        10.68769         1.61675
   C        4.78796        -1.06318         0.61864
   C        6.15089        -0.37543         0.74064
   C        4.21990         5.97392         2.38037
   C        4.37313         7.18377         3.02802
   C        5.59685         7.29918         3.67926
   C        6.39556         6.17857         3.54016
   S        5.61146         4.95695         2.58000
   C       11.02744         6.60511         6.02940
   S       12.46698         5.61939         6.21348
   C       13.24305         6.80861         7.24521
   C       12.40820         7.89505         7.42415
   C       11.17956         7.77510         6.73634
   C       14.54169         6.58128         7.76310
   C       15.24258         7.36602         8.66007
   C       16.50099         6.85759         8.96249
   S       15.47323         5.18804         7.28909
   C       16.79387         5.68045         8.29856
   C       12.40153         9.18426         8.12469
   N       11.17096         9.76047         7.81059
   C       10.38430         8.97969         6.97929
   O       13.22340         9.70420         8.84241
   O        9.28211         9.27909         6.57810
   C       10.77493        11.07249         8.27409
   C       11.20866        12.15783         7.29477
   C        9.91757         6.17871         5.26245
   S        8.49222         7.18424         5.04561
   C        7.68822         5.96456         4.07067
   C        8.50174         4.85850         3.94330
   C        9.74286         4.98461         4.60306
   C        8.44885         3.53620         3.32029
   N        9.66907         2.94019         3.64049
   C       10.50307         3.74868         4.39944
   O        7.57743         3.00336         2.67305
   O       11.60688         3.44300         4.78917
   C       10.03606         1.61427         3.19289
   C       10.52864         1.63278         1.75017
   C       21.37883         4.22279         9.67071
   C       20.14801         4.26292         8.98477
   C       19.88242         3.34281         7.94012
   C       20.79000         2.37524         7.52095
   C       22.04392         2.37419         8.16718
   C       22.30300         3.28564         9.22129
   C       19.07258         5.15960         9.18475
   C       18.00353         4.93102         8.36483
   S       18.28178         3.57750         7.29040
   C       23.16805         1.56045         7.88903
   C       24.23676         1.79863         8.70714
   S       23.90045         3.05559         9.87645
   C       21.67695         5.08905        10.79259
   C       20.44158         1.41929         6.49007
   C       22.86257         5.69613        11.10017
   C       22.81963         6.43244        12.29995
   C       21.61357         6.37974        12.92790
   S       20.48824         5.42123        12.02448
   C       19.70477         1.62772         5.35747
   C       19.50621         0.45995         4.59558
   C       20.07088        -0.64998         5.14409
   S       20.88339        -0.26231         6.62433
   C       21.19093         7.04957        14.18954
   C       20.22752         8.20513        13.91060
   C       20.09370        -2.04150         4.61283
   C       21.47946        -2.41140         4.07925
   C       25.52815         1.19753         8.66263
   C       26.01522         0.31340         7.71628
   C       27.34250        -0.03541         7.93272
   C       27.88902         0.56642         9.05226
   S       26.72564         1.58018         9.85610
   C       33.02917        -0.47785         9.62401
   S       34.27054        -0.08044        10.79688
   C       35.52636        -0.85184         9.84413
   C       34.98419        -1.38522         8.69195
   C       33.59115        -1.17500         8.58013
   C       36.86763        -0.83678        10.29846
   C       37.99910        -1.31644         9.66692
   C       39.16395        -1.10238        10.40063
   S       37.26064        -0.11859        11.83578
   C       38.94580        -0.46456        11.60494
   C       35.42181        -2.12095         7.50077
   N       34.26287        -2.30855         6.74664
   C       33.12455        -1.77253         7.32793
   O       36.51685        -2.50440         7.16358
   O       32.01190        -1.81168         6.85281
   C       34.24719        -3.02960         5.49245
   C       33.99302        -4.51674         5.71332
   C       31.68663        -0.06528         9.79363
   S       30.43495        -0.43633         8.61816
   C       29.21654         0.44853         9.52535
   C       29.77984         0.97692        10.66653
   C       31.15194         0.68397        10.81547
   C       29.35859         1.78755        11.80911
   N       30.50817         1.93147        12.58829
   C       31.62305         1.29869        12.05941
   O       28.28344         2.26914        12.07664
   O       32.72533         1.29419        12.55902
   C       30.52902         2.64727        13.84549
   C       30.47015         1.68785        15.02907
   C       40.80788         1.23994        15.91554
   C       40.75671         0.71519        14.60780
   C       41.95114         0.38186        13.92201
   C       43.21941         0.55748        14.46355
   C       43.27349         1.11734        15.75719
   C       42.07792         1.43817        16.44791
   C       39.61174         0.45774        13.81952
   C       39.88933        -0.09425        12.60245
   S       41.60990        -0.30344        12.35315
   C       44.42202         1.43510        16.51965
   C       44.13988         1.94082        17.75789
   S       42.41761         2.06588        18.03752
   C       39.61379         1.54172        16.67713
   C       44.40560         0.16803        13.72829
   C       39.39752         2.58775        17.53144
   C       38.12263         2.56747        18.12902
   C       37.36373         1.50037        17.75688
   S       38.21891         0.49599        16.63629
   C       44.65171         0.31700        12.39198
   C       45.89500        -0.20867        11.98952
   C       46.59853        -0.77865        13.00517
   S       45.73154        -0.65857        14.50058
   C       35.96423         1.16892        18.14441
   C       34.99172         1.43607        16.99273
   C       47.95154        -1.40068        12.96637
   C       48.99042        -0.51415        13.65641
   C       45.06496         2.35986        18.75782
   C       46.44368         2.41795        18.65246
   C       47.05701         2.88124        19.80926
   C       46.16041         3.17847        20.82031
   S       44.52086         2.87843        20.31975
   C       48.55893         4.95852        25.17163
   S       48.06403         5.43790        26.78443
   C       49.70928         5.81281        27.26229
   C       50.57191         5.57347        26.21270
   C       49.92164         5.09554        25.05134
   C       49.99111         6.28759        28.57184
   C       51.21379         6.62988        29.10536
   C       51.12269         7.05741        30.43794
   S       48.71674         6.50274        29.74186
   C       49.84429         7.04279        30.91157
   C       52.00577         5.66890        25.91110
   N       52.12587         5.24662        24.58776
   C       50.92262         4.87941        24.00595
   O       52.93793         6.02991        26.58962
   O       50.78872         4.48111        22.87078
   C       53.39685         5.16071        23.90165
   C       54.01945         3.77815        24.06163
   C       47.62729         4.51503        24.20252
   S       48.11873         4.01945        22.58978
   C       46.46461         3.66322        22.11342
   C       45.61228         3.93011        23.16250
   C       46.26263         4.39989        24.32304
   C       44.17745         3.86057        23.43842
   N       44.04599         4.29578        24.75846
   C       45.25043         4.63235        25.35751
   O       43.25789         3.52293        22.73157
   O       45.37987         5.03256        26.49199
   C       42.77695         4.33792        25.45186
   C       42.49729         3.02210        26.16986
   H       -2.73216         4.63263        -1.60631
   H       -2.82954         2.28219        -2.72439
   H        3.84609         3.59783         1.00483
   H       -3.11687         5.41084         0.62242
   H       -4.16775         7.77693         0.81273
   H        1.94060         1.07689        -2.47944
   H        3.56490        -0.88236        -2.00430
   H       -3.54766        10.27463         0.41096
   H       -2.06418        10.55479        -0.51480
   H       -2.20527        10.23866         2.52252
   H       -1.97796        11.76022         1.65257
   H       -0.73166        10.50821         1.58862
   H        4.87989        -1.95747        -0.00187
   H        4.45066        -1.36763         1.61243
   H        6.51146        -0.07657        -0.24113
   H        6.87477        -1.05473         1.18427
   H        6.07845         0.51243         1.36506
   H        3.61421         7.94592         3.01945
   H        5.91113         8.16153         4.24063
   H       14.84137         8.27655         9.06707
   H       17.18796         7.33445         9.63682
   H       11.24396        11.22951         9.24837
   H        9.68743        11.06726         8.37979
   H       12.29045        12.15058         7.18198
   H       10.90163        13.13196         7.66469
   H       10.74958        11.99084         6.32301
   H        9.15193         0.97708         3.27958
   H       10.82048         1.25626         3.86367
   H        9.74375         2.00086         1.09372
   H       10.80071         0.62744         1.44129
   H       11.40060         2.27629         1.65772
   H       19.09239         5.95546         9.90463
   H       23.19194         0.83228         7.10064
   H       23.73139         5.64946        10.46928
   H       23.66139         6.97857        12.68715
   H       19.34447         2.59455         5.05651
   H       18.95582         0.44490         3.67162
   H       22.07988         7.42560        14.70015
   H       20.69991         6.32558        14.84477
   H       20.69796         8.94248        13.26388
   H       19.94073         8.69005        14.84021
   H       19.32963         7.83626        13.41972
   H       19.35746        -2.12122         3.81033
   H       19.81579        -2.74261         5.40399
   H       21.77640        -1.72664         3.28754
   H       21.47283        -3.42275         3.68050
   H       22.21576        -2.35763         4.87830
   H       25.42731        -0.05099         6.89407
   H       27.90926        -0.70021         7.30470
   H       37.96221        -1.80016         8.70731
   H       40.14558        -1.40077        10.07777
   H       35.21828        -2.87595         5.01570
   H       33.45612        -2.59567         4.87611
   H       34.77604        -4.94231         6.33667
   H       33.98520        -5.03477         4.75856
   H       33.03199        -4.66471         6.20066
   H       29.66354         3.31389        13.84517
   H       31.45097         3.23369        13.88310
   H       29.56024         1.09333        14.98832
   H       30.47985         2.24995        15.95864
   H       31.33051         1.02292        15.01206
   H       38.60532         0.67661        14.12572
   H       45.42535         1.29883        16.16351
   H       40.11294         3.37239        17.69816
   H       37.78216         3.32045        18.81747
   H       43.98006         0.82210        11.72179
   H       46.25308        -0.16795        10.97607
   H       35.68684         1.77546        19.00917
   H       35.90025         0.11569        18.42947
   H       35.02902         2.48294        16.69998
   H       33.97569         1.19528        17.29525
   H       35.24994         0.82790        16.12881
   H       48.23486        -1.55712        11.92349
   H       47.92500        -2.37343        13.46400
   H       49.03896         0.45893        13.17262
   H       49.97298        -0.97649        13.60796
   H       48.72571        -0.36883        14.70144
   H       46.97829         2.13811        17.76353
   H       48.11908         3.00338        19.93047
   H       52.13005         6.56897        28.54686
   H       51.96933         7.36545        31.02439
   H       49.49769         7.31921        31.88790
   H       54.04952         5.92469        24.33072
   H       53.21467         5.37582        22.84596
   H       54.18787         3.56198        25.11413
   H       54.97145         3.74040        23.53981
   H       53.36045         3.02003        23.64479
   H       42.00491         4.53583        24.70447
   H       42.82228         5.16079        26.16935
   H       42.46149         2.20457        25.45341
   H       41.54242         3.07863        26.68471
   H       43.27777         2.82056        26.90012
*
