# ORCA input file
# SCF done       -408.843875726877          0.000508293940
! wb97x-d3 def2-SVP def2/J RIJCOSX Grid4 TightSCF
%maxcore 5000
%tddft
    Mode sTDA
    Ethresh 5.0
    maxcore 5000
end

%pal
  nprocs 6
  end
* xyz 0 1
   C        5.24000        -3.55840        -4.33273
   C        6.02506        -4.26266        -5.26277
   C        7.42015        -4.04329        -5.32916
   C        8.09403        -3.14503        -4.50404
   C        7.30313        -2.41844        -3.59303
   C        5.90418        -2.63401        -3.53573
   C        5.59589        -5.22463        -6.22485
   C        6.61090        -5.72897        -6.95357
   S        8.15387        -5.06734        -6.53548
   C        7.71574        -1.42636        -2.67101
   C        6.70021        -0.91751        -1.91610
   S        5.15545        -1.63540        -2.31856
   C        3.81657        -3.80624        -4.20640
   C        9.53186        -2.98464        -4.58476
   C       10.31500        -2.99558        -5.70412
   C       11.68776        -2.85178        -5.41189
   C       11.97477        -2.73306        -4.08354
   S       10.51689        -2.80772        -3.15711
   C        3.16950        -5.00850        -4.16456
   C        1.34738        -3.59297        -3.96856
   S        2.68202        -2.49295        -4.07467
   C        6.79937         0.08132        -0.90735
   S        8.34795         0.72111        -0.44736
   C        7.60426         1.78168         0.71410
   C        6.23449         1.62043         0.72668
   C        5.78377         0.66246        -0.18127
   C        8.43148         2.66326         1.48121
   C        7.98157         3.64451         2.35568
   C        8.82941         4.50416         3.06995
   C       10.21686         4.47269         2.98837
   C       10.70212         3.47220         2.11338
   C        9.84197         2.60287         1.38796
   N       11.96030         3.14413         1.79258
   N       11.83513         2.15800         0.94941
   N       10.61820         1.78664         0.66583
   C       11.11278         5.34118         3.69020
   C       12.97638         1.51158         0.36539
   C       12.89132         1.55358        -1.15532
   C       10.82964         6.40205         4.52616
   C       11.96789         7.03005         5.02545
   C       13.14415         6.45859         4.58440
   S       12.82995         5.11920         3.52604
   C       13.30358        -2.60959        -3.42328
   C       -0.03882        -3.07735        -3.79010
   C       -0.25142        -2.54919        -2.36978
   C       13.84570        -3.98259        -3.01912
   F        6.66012         3.82238         2.55233
   F        8.21694         5.39950         3.87026
   C        1.77283        -4.88436        -4.02303
  Cl       12.89403        -2.81566        -6.64033
   C       16.93737         9.11436         6.47179
   C       16.24336         8.09820         5.78700
   C       16.95396         7.04768         5.15661
   C       18.34257         6.94377         5.17982
   C       19.03925         7.97750         5.84044
   C       18.32347         9.03695         6.45183
   C       14.84408         7.97395         5.61590
   C       14.47001         6.86395         4.91427
   S       15.85518         5.91607         4.41215
   C       20.43725         8.14020         5.99207
   C       20.79034         9.25130         6.70154
   S       19.39695        10.17738         7.21414
   C       16.23053        10.16251         7.18024
   C       19.01879         5.81934         4.56509
   C       18.67829         5.16361         3.41562
   C       19.53190         4.07665         3.13333
   C       20.52449         3.88213         4.04849
   S       20.40522         5.06384         5.30483
   C       15.14340        10.04150         7.99951
   C       15.46778        12.32994         8.14030
   S       16.73670        11.82447         7.07406
   C       22.10041         9.68577         7.04559
   S       23.48966         8.68788         6.73890
   C       24.54506         9.88245         7.43691
   C       23.83232        10.98130         7.86998
   C       22.45990        10.86729         7.65562
   C       25.95098         9.62411         7.51367
   C       26.91405        10.51595         7.96603
   C       28.27685        10.20263         8.05274
   C       28.82661         8.97437         7.70307
   C       27.87028         8.04568         7.21916
   C       26.48571         8.37054         7.13277
   N       28.00267         6.78319         6.78508
   N       26.79026         6.41313         6.47644
   N       25.84901         7.29486         6.65828
   C       30.21379         8.65220         7.83994
   C       26.50265         5.09511         5.98262
   C       25.62167         5.16985         4.74315
   C       30.82070         7.44606         7.55377
   C       32.18605         7.43353         7.83398
   C       32.64960         8.63143         8.33412
   S       31.37025         9.79519         8.45914
   C       21.56634         2.81886         4.08414
   C       15.34144        13.76170         8.53120
   C       16.47505        14.17852         9.47057
   C       21.08707         1.60536         4.88458
   F       26.56595        11.75758         8.35594
   F       29.07975        11.17951         8.52123
   C       14.71882        11.26863         8.54630
  Cl       19.33668         3.08870         1.73678
   C       36.49784        11.28269        10.10772
   C       35.76189        10.20225         9.58241
   C       36.38302         8.94519         9.38328
   C       37.71672         8.69608         9.69018
   C       38.46109         9.78480        10.18916
   C       37.84024        11.04510        10.37370
   C       34.40001        10.18670         9.19807
   C       33.96553         8.97218         8.75391
   S       35.24676         7.77453         8.76514
   C       39.82769         9.81810        10.55393
   C       40.24368        11.02878        11.02745
   S       38.95580        12.21400        11.02724
   C       35.86695        12.55979        10.37261
   C       38.28988         7.37563         9.52319
   C       38.05948         6.48046         8.51810
   C       38.75803         5.26702         8.69734
   C       39.50679         5.20729         9.83552
   S       39.36552         6.69266        10.71181
   C       34.65333        12.79959        10.95364
   C       35.31815        14.98188        10.55683
   S       36.64954        14.05572         9.94682
   C       41.54257        11.37130        11.49614
   S       42.80113        10.17551        11.58552
   C       43.91716        11.34564        12.22802
   C       43.32032        12.58286        12.35128
   C       41.98696        12.59587        11.94267
   C       45.25240        10.93863        12.55098
   C       46.25486        11.76052        13.04624
   C       47.54826        11.30850        13.34980
   C       47.97862         9.99803        13.19309
   C       46.97656         9.13194        12.68790
   C       45.66448         9.59540        12.38198
   N       47.00208         7.82010        12.40783
   N       45.80065         7.55245        11.97824
   N       44.96187         8.54836        11.93593
   C       49.30126         9.53728        13.50359
   C       45.42727         6.23735        11.54150
   C       45.22531         6.21966        10.03041
   C       49.77908         8.25441        13.36828
   C       51.12044         8.12341        13.75777
   C       51.65833         9.29909        14.18630
   S       50.54000        10.59252        14.12405
   C       40.39715         4.11708        10.32083
   C       35.35955        16.47043        10.52174
   C       36.35837        17.01946        11.54253
   C       41.87001         4.50482        10.17382
   F       46.01969        13.06928        13.26177
   F       48.40387        12.23646        13.82310
   C       34.34924        14.17072        11.06212
  Cl       38.65990         3.97484         7.56258
   H        4.56706        -5.50073        -6.36434
   H        6.56297        -6.45852        -7.73815
   H        8.72678        -1.07880        -2.56629
   H        9.93485        -3.06704        -6.70588
   H        3.68291        -5.95329        -4.19214
   H        5.57865         2.17330         1.37277
   H        4.74962         0.39792        -0.31498
   H       12.99803         0.47247         0.70869
   H       13.85701         2.03753         0.73794
   H       11.97284         1.07479        -1.48469
   H       13.74042         1.03184        -1.58727
   H       12.89702         2.58149        -1.50922
   H        9.83235         6.71740         4.76853
   H       11.93469         7.87100         5.69370
   H       13.21093        -1.98007        -2.53607
   H       13.99790        -2.13388        -4.11899
   H       -0.74482        -3.88561        -3.99248
   H       -0.22635        -2.27080        -4.50300
   H       -0.08061        -3.34016        -1.64296
   H       -1.26734        -2.18066        -2.25210
   H        0.44124        -1.73624        -2.16438
   H       13.16530        -4.46582        -2.32186
   H       14.81765        -3.87811        -2.54399
   H       13.95273        -4.61723        -3.89508
   H        1.10678        -5.72728        -3.96540
   H       14.14382         8.70302         5.97745
   H       21.17467         7.47385         5.58445
   H       17.87392         5.45788         2.76800
   H       14.69112         9.09546         8.23913
   H       24.28547        11.83680         8.33425
   H       21.74216        11.61966         7.93143
   H       25.98945         4.53413         6.77057
   H       27.46296         4.62118         5.77257
   H       24.70458         5.70356         4.97804
   H       25.37666         4.16736         4.40434
   H       26.13476         5.69400         3.94088
   H       30.26948         6.61241         7.16040
   H       32.82777         6.58327         7.68420
   H       22.47534         3.21819         4.53843
   H       21.79219         2.51383         3.06003
   H       14.37894        13.90826         9.02581
   H       15.36767        14.39105         7.63820
   H       16.45939        13.57313        10.37401
   H       16.36937        15.22382         9.74947
   H       17.43683        14.04299         8.98119
   H       20.85984         1.89465         5.90812
   H       21.85664         0.83785         4.90070
   H       20.18923         1.18908         4.43456
   H       13.88400        11.35932         9.21882
   H       33.76040        11.04993         9.22990
   H       40.49934         8.98408        10.46776
   H       37.44717         6.68198         7.65920
   H       34.01638        12.01967        11.33117
   H       43.82781        13.45108        12.72763
   H       41.35737        13.46783        11.96834
   H       44.49878         5.96059        12.04722
   H       46.23026         5.56284        11.84218
   H       44.45490         6.93501         9.75464
   H       44.91846         5.22854         9.71048
   H       46.14902         6.48319         9.52101
   H       49.16848         7.45167        13.00024
   H       51.66531         7.19699        13.72250
   H       52.65435         9.48277        14.53785
   H       40.19114         3.21505         9.74199
   H       40.18275         3.91015        11.37211
   H       34.36080        16.85518        10.73828
   H       35.64783        16.80720         9.52292
   H       36.08208        16.70734        12.54713
   H       36.37580        18.10585        11.50736
   H       37.35739        16.64680        11.32786
   H       42.10619         4.69322         9.12908
   H       42.50718         3.70251        10.53769
   H       42.07746         5.40724        10.74466
   H       33.43789        14.54087        11.49736
*
