# ORCA input file
# SCF done       -420.977041092387          0.000292244042
! wb97x-d3 def2-SVP def2/J RIJCOSX Grid4 TightSCF
%maxcore 5000
%tddft
    Mode sTDA
    Ethresh 5.0
    maxcore 5000
end

%pal
  nprocs 6
  end
* xyz 0 1
   C       16.84921         4.83423         4.10116
   C       16.56760         4.55863         5.45279
   C       15.27438         4.79780         5.97530
   C       14.23247         5.31229         5.21551
   C       14.50836         5.57880         3.86396
   C       15.80403         5.35374         3.34210
   C       17.45097         4.07783         6.46460
   C       16.85796         3.95252         7.66858
   S       15.18944         4.41002         7.67075
   C       13.60154         6.01129         2.86885
   C       14.16306         6.14695         1.63365
   S       15.86431         5.73025         1.63769
   C       18.14021         4.57009         3.49743
   C       12.90851         5.55928         5.75973
   C       12.15920         6.70120         5.67941
   C       10.87745         6.57215         6.27577
   C       10.64598         5.34488         6.82093
   S       12.01975         4.31835         6.59324
   C       18.80365         5.32159         2.56850
   C       20.27656         3.54036         2.72442
   S       19.02240         3.10674         3.83800
   C       13.48565         6.55930         0.45164
   S       11.82207         7.04782         0.55992
   C       11.74253         7.29003        -1.15959
   C       12.95832         7.02578        -1.75365
   C       13.93975         6.62004        -0.84647
   C       10.47942         7.64610        -1.73322
   C       10.16586         7.67608        -3.08600
   C        8.86989         7.89473        -3.58038
   C        7.75681         8.10735        -2.77443
   C        8.06561         8.15857        -1.39401
   C        9.37639         7.93455        -0.89637
   N        7.27160         8.37347        -0.33630
   N        8.06718         8.28546         0.69296
   N        9.31841         8.02805         0.43693
   C        6.39712         8.17801        -3.21750
   C        7.59659         8.47839         2.03631
   C        8.06163         7.33910         2.93308
   C        5.86300         8.05083        -4.48322
   C        4.46765         8.02746        -4.49446
   C        3.91238         8.14890        -3.24024
   S        5.14086         8.31631        -2.02231
   C        9.40124         4.84602         7.46818
   C       21.42509         2.62155         2.48815
   C       20.99705         1.39583         1.67823
   C        8.45384         4.23712         6.43132
   F       11.12447         7.44385        -4.00403
   F        8.73181         7.85044        -4.92028
   C       20.01309         4.74050         2.13973
  Cl        9.74180         7.85745         6.30505
  Cl       12.71445         8.17850         5.00062
   C       -0.10061         7.94821        -0.28241
   C        0.68177         7.93882        -1.45560
   C        0.13861         7.45888        -2.67268
   C       -1.13442         6.91886        -2.77107
   C       -1.89874         6.87240        -1.59229
   C       -1.37408         7.39870        -0.38627
   C        2.05354         8.25476        -1.59155
   C        2.54777         8.05405        -2.84750
   S        1.31355         7.49530        -3.95996
   C       -3.18649         6.31110        -1.41486
   C       -3.64090         6.38027        -0.13163
   S       -2.51735         7.22415         0.91897
   C        0.41084         8.45924         0.97279
   C       -1.63237         6.36748        -4.02162
   C       -2.06821         5.09737        -4.27539
   C       -2.47185         4.90349        -5.62404
   C       -2.33700         6.01486        -6.40094
   S       -1.71340         7.33086        -5.46583
   C        0.21944         7.96388         2.23281
   C        1.54931         9.78845         2.75032
   S        1.39571         9.89586         1.02901
   C       -4.77040         5.71693         0.43058
   S       -5.43465         4.33294        -0.37686
   C       -6.44533         3.97070         0.99287
   C       -6.29961         4.92698         1.97755
   C       -5.35084         5.90010         1.66621
   C       -7.14614         2.72714         1.09987
   C       -7.12433         1.74176         0.12038
   C       -7.55793         0.42733         0.32708
   C       -8.06866        -0.03895         1.53208
   C       -8.24322         0.98049         2.50256
   C       -7.79297         2.31972         2.29476
   N       -8.76547         0.92566         3.73472
   N       -8.63307         2.13596         4.20051
   N       -8.06605         3.00596         3.41232
   C       -8.26688        -1.42418         1.83155
   C       -9.13850         2.50523         5.49188
   C      -10.59168         2.95793         5.38479
   C       -8.73483        -1.96590         3.01153
   C       -8.61568        -3.35380         3.06833
   C       -8.05739        -3.89854         1.93198
   S       -7.71165        -2.67312         0.75415
   C       -2.70917         6.19210        -7.83158
   C        2.40010        10.76208         3.49040
   C        3.88621        10.46833         3.26840
   C       -4.13448         6.73432        -7.96264
   F       -6.59644         2.01632        -1.08807
   F       -7.39852        -0.42619        -0.70345
   C        0.87210         8.71077         3.23256
  Cl       -3.05794         3.39735        -6.20110
  Cl       -2.06772         3.82786        -3.11877
   C       -6.03337        -7.86395        -0.33801
   C       -6.66069        -7.07399         0.64756
   C       -6.90837        -7.60377         1.93920
   C       -6.55025        -8.89089         2.31033
   C       -5.87915        -9.66387         1.34392
   C       -5.66139        -9.14896         0.04407
   C       -7.10834        -5.73627         0.54209
   C       -7.65579        -5.24155         1.68991
   S       -7.69695        -6.44083         2.96945
   C       -5.27912       -10.93088         1.52021
   C       -4.64575       -11.40011         0.40619
   S       -4.76964       -10.28431        -0.93778
   C       -5.74277        -7.37330        -1.66927
   C       -6.79741        -9.42925         3.63577
   C       -7.34853       -10.63598         3.97116
   C       -7.37248       -10.87115         5.37107
   C       -6.85750        -9.84797         6.10885
   S       -6.31991        -8.57138         5.07183
   C       -5.82564        -8.05950        -2.84937
   C       -5.02022        -6.04002        -3.64917
   S       -5.13743        -5.76270        -1.94448
   C       -3.93380       -12.62709         0.30095
   S       -3.88848       -13.70770         1.66114
   C       -2.86257       -14.81227         0.79631
   C       -2.60107       -14.35203        -0.47692
   C       -3.20588       -13.12510        -0.75612
   C       -2.40535       -15.99272         1.46722
   C       -1.50003       -16.92056         0.97465
   C       -1.06425       -18.03587         1.70737
   C       -1.47987       -18.34170         2.99697
   C       -2.41942       -17.41945         3.52324
   C       -2.85929       -16.29305         2.77272
   N       -3.05543       -17.37214         4.70495
   N       -3.80281       -16.30517         4.63405
   N       -3.73792       -15.62449         3.52651
   C       -1.01849       -19.47284         3.74919
   C       -4.68549       -15.92421         5.70299
   C       -4.71483       -14.41167         5.86271
   C       -1.39480       -19.81876         5.02636
   C       -0.76054       -20.98087         5.49041
   C        0.09215       -21.51432         4.57191
   S        0.13995       -20.61054         3.11973
   C       -6.67069        -9.77884         7.58435
   C       -4.56202        -4.95154        -4.55662
   C       -5.59060        -3.82129        -4.63470
   C       -5.28883       -10.30287         7.98311
   F       -0.98052       -16.77445        -0.25953
   F       -0.17531       -18.83966         1.08982
   C       -5.42903        -7.29923        -3.96626
  Cl       -7.99965       -12.31636         6.05095
  Cl       -8.02274       -11.74136         2.84203
   H       18.48642         3.85016         6.29292
   H       17.29764         3.61662         8.58715
   H       12.55786         6.19434         3.04665
   H       18.45434         6.27905         2.22678
   H       13.13145         7.11925        -2.80978
   H       14.94744         6.36393        -1.12281
   H        6.50841         8.53917         1.98113
   H        7.99241         9.42810         2.41001
   H        7.63621         6.39414         2.60400
   H        7.75338         7.52779         3.95726
   H        9.14541         7.26631         2.89831
   H        6.46079         7.95901        -5.37082
   H        3.87387         7.91291        -5.38417
   H        8.90540         5.68025         7.96863
   H        9.65866         4.09260         8.21386
   H       21.83662         2.29139         3.44530
   H       22.20398         3.16520         1.94934
   H       20.23192         0.83886         2.21443
   H       21.84791         0.74151         1.50619
   H       20.59168         1.70118         0.71625
   H        8.18122         4.98138         5.68722
   H        7.54949         3.87975         6.91629
   H        8.93371         3.40172         5.92749
   H       20.66732         5.20074         1.42062
   H        2.68269         8.58010        -0.78370
   H       -3.75346         5.85138        -2.20345
   H       -0.33751         7.06766         2.43649
   H       -6.84808         4.88177         2.89978
   H       -5.07273         6.70646         2.32175
   H       -8.51194         3.31447         5.87100
   H       -9.05701         1.63050         6.13966
   H      -10.66866         3.82045         4.72746
   H      -10.96641         3.23063         6.36702
   H      -11.20591         2.15489         4.98499
   H       -9.12360        -1.35336         3.80341
   H       -8.90390        -3.95271         3.91422
   H       -2.63849         5.22548        -8.33372
   H       -2.01138         6.88540        -8.30401
   H        2.16720        10.69737         4.55529
   H        2.18152        11.77730         3.15147
   H        4.12680         9.46456         3.61249
   H        4.49779        11.18059         3.81647
   H        4.12910        10.54088         2.21040
   H       -4.84190         6.04638        -7.50669
   H       -4.39312         6.85642        -9.01098
   H       -4.21765         7.69859        -7.46692
   H        0.83920         8.45502         4.27696
   H       -7.02393        -5.13956        -0.34734
   H       -5.27877       -11.47245         2.44825
   H       -6.19616        -9.06619        -2.92071
   H       -1.99097       -14.88362        -1.18333
   H       -3.11321       -12.60644        -1.69410
   H       -4.32880       -16.42597         6.60455
   H       -5.69058       -16.29221         5.46940
   H       -3.73419       -14.03605         6.14403
   H       -5.43257       -14.13826         6.63072
   H       -5.00711       -13.94959         4.92385
   H       -2.10386       -19.24248         5.59027
   H       -0.92818       -21.40483         6.46431
   H        0.70013       -22.39258         4.66377
   H       -7.44288       -10.38205         8.06571
   H       -6.77677        -8.74441         7.91443
   H       -4.39718        -5.37148        -5.55123
   H       -3.61369        -4.54559        -4.19503
   H       -6.54279        -4.20025        -4.99932
   H       -5.24416        -3.04336        -5.31007
   H       -5.74639        -3.38245        -3.65176
   H       -5.17180       -11.33568         7.66451
   H       -5.16706       -10.25340         9.06176
   H       -4.51060        -9.70500         7.51518
   H       -5.44341        -7.67712        -4.97323
*
