# ORCA input file
# SCF done       -247.814317304588          0.000959911064
! wb97x-d3 def2-SVP def2/J RIJCOSX Grid4 TightSCF
%maxcore 5000
%tddft
    Mode sTDA
    Ethresh 5.0
    maxcore 5000
end

%pal
  nprocs 6
  end
* xyz 0 1
   C        1.11721         1.50564        -7.98095
   C        1.19942         0.75652        -6.83616
   C        0.94454        -0.61499        -7.06947
   C        0.67477        -0.88922        -8.38254
   S        0.73395         0.56370        -9.34938
   C        1.52582         1.35155        -5.52884
   O        1.57163         0.42575        -4.55931
   O        1.73116         2.52530        -5.34145
   C        1.88534         0.90664        -3.26139
   C       -0.14741        -5.99478        -9.25758
   C        0.21681        -6.97461       -10.14668
   C        0.01926        -8.26811        -9.64485
   S       -0.72881        -6.69117        -7.77134
   C       -0.05221        -4.57677        -9.40271
   C       -0.12114        -3.79846       -10.54518
   C        0.13900        -2.43561       -10.29609
   C        0.38323        -2.15347        -8.97849
   S        0.30813        -3.59897        -8.01185
   C       -0.50240        -4.24454       -11.90103
   O       -1.35524        -5.27837       -11.87528
   O       -0.12897        -3.71173       -12.91496
   C       -1.79143        -5.75635       -13.14007
   C       -1.19481       -11.69007        -6.58113
   C       -1.55595       -10.66816        -5.73213
   C       -1.34276        -9.40194        -6.27471
   C       -0.81492        -9.43031        -7.54934
   S       -0.56880       -11.06684        -8.07814
   C       -1.22229       -13.09856        -6.35165
   C       -2.06166       -13.85411        -5.54984
   C       -1.69571       -15.21386        -5.49953
   C       -0.60164       -15.51859        -6.26624
   S        0.01169       -14.09612        -7.06172
   C       -3.27590       -13.38689        -4.85233
   O       -3.88854       -12.38931        -5.50722
   O       -3.69960       -13.87448        -3.83490
   C       -5.08194       -11.90048        -4.91301
   C       -0.49262        -8.31058        -8.36207
   C        0.65605       -20.59713        -6.09647
   C        1.65547       -21.54044        -6.12799
   C        1.21199       -22.81688        -5.76561
   S       -0.85850       -21.32296        -5.60623
   C        0.69221       -19.19761        -6.36434
   C        1.58030       -18.40714        -7.08858
   C        1.18841       -17.05212        -7.12778
   C        0.03431       -16.78085        -6.44356
   S       -0.61718       -18.23274        -5.74227
   C        2.80005       -18.83757        -7.79389
   O        3.13380       -17.94719        -8.74157
   O        3.45400       -19.82947        -7.57941
   C        4.31132       -18.24027        -9.47755
   C       -0.13352       -22.89576        -5.45180
  Cl        0.39325        -9.67688       -10.54935
  Cl        2.25937       -24.17168        -5.72049
   C       -0.91059       -24.01856        -5.06621
   S       -0.21280       -25.59255        -4.82790
   C       -1.75804       -26.26557        -4.41664
   C       -2.74378       -25.29728        -4.46838
   C       -2.27007       -24.03829        -4.81956
   C       -1.96474       -27.64840        -4.14820
   C       -1.07933       -28.68682        -3.89764
   C       -1.71407       -29.93897        -3.78774
   C       -3.07564       -29.88736        -3.92970
   S       -3.59962       -28.25503        -4.22916
   C        0.38356       -28.61056        -3.70992
   O        0.75979       -27.45462        -3.14743
   O        1.13650       -29.51024        -3.98470
   C        2.14754       -27.24477        -2.92532
   C       -5.31469       -34.59211        -3.38967
   C       -6.24140       -35.41436        -3.97863
   C       -6.12707       -36.75137        -3.57081
   S       -4.27563       -35.50151        -2.33063
   C       -5.09883       -33.19199        -3.57234
   C       -5.98725       -32.18569        -3.91554
   C       -5.35871       -30.93603        -4.08658
   C       -4.00745       -30.96194        -3.85946
   S       -3.48149       -32.56889        -3.44355
   C       -7.45518       -32.28932        -4.03425
   O       -7.96834       -33.24478        -3.24635
   O       -8.12550       -31.56736        -4.72890
   C       -9.37946       -33.39925        -3.29189
   C       -3.45553       -39.85962        -0.67963
   C       -4.53410       -40.39631        -1.31039
   C       -5.24047       -39.45707        -2.08185
   C       -4.68982       -38.19909        -2.03437
   S       -3.27543       -38.18739        -1.01357
   C       -5.10798       -36.98999        -2.66929
  Cl       -7.18747       -37.95041        -4.19031
   H        1.26801         2.56319        -8.06856
   H        0.96213        -1.36215        -6.29749
   H        1.91694         0.03454        -2.61374
   H        1.12174         1.60971        -2.92247
   H        2.85092         1.41629        -3.26883
   H        0.63508        -6.77870       -11.11549
   H        0.13103        -1.69254       -11.07330
   H       -2.37929        -6.64801       -12.93906
   H       -0.93420        -5.99328       -13.77359
   H       -2.39910        -5.00091       -13.64225
   H       -1.93211       -10.83604        -4.73999
   H       -1.55693        -8.48095        -5.76178
   H       -2.23652       -15.94067        -4.92017
   H       -5.43961       -11.10668        -5.56336
   H       -4.87846       -11.51532        -3.91147
   H       -5.82273       -12.69889        -4.83583
   H        2.66948       -21.31736        -6.40054
   H        1.75482       -16.29623        -7.64085
   H        4.40106       -17.45890       -10.22763
   H        4.23010       -19.22094        -9.95079
   H        5.18135       -18.24101        -8.81746
   H       -3.77470       -25.51111        -4.24770
   H       -2.88443       -23.15909        -4.89870
   H       -1.17009       -30.84778        -3.60085
   H        2.28819       -27.00718        -1.87138
   H        2.46940       -26.40520        -3.54233
   H        2.70645       -28.14370        -3.19066
   H       -6.96600       -35.08390        -4.69834
   H       -5.90011       -30.04726        -4.35756
   H       -9.60197       -34.30779        -2.73836
   H       -9.72005       -33.48242        -4.32611
   H       -9.87004       -32.54003        -2.83017
   H       -2.75060       -40.34630        -0.03551
   H       -4.81791       -41.43011        -1.22827
   H       -6.12087       -39.70101        -2.64460
*
