# ORCA input file
# SCF done       -636.281200002264          0.000396587737
! wb97x-d3 def2-SVP def2/J RIJCOSX Grid4 TightSCF
%maxcore 5000
%tddft
    Mode sTDA
    Ethresh 5.0
    maxcore 5000
end

%pal
  nprocs 6
  end
* xyz 0 1
   C       -3.42066        -0.64136         5.51390
   C       -3.47439        -0.87715         4.12551
   C       -2.27903        -1.04932         3.38546
   C       -1.01084        -0.99589         3.95382
   C       -0.95716        -0.72830         5.33743
   C       -2.15373        -0.55308         6.07643
   C       -4.62354        -0.97985         3.30600
   C       -4.34496        -1.26060         1.99967
   S       -2.62087        -1.38306         1.70754
   C        0.18787        -0.59378         6.15727
   C       -0.09904        -0.36108         7.47148
   S       -1.82321        -0.27352         7.76496
   C       -4.63039        -0.52523         6.30294
   C        0.17798        -1.22442         3.15837
   C       -5.75914        -1.29314         6.23997
   C       -6.74801        -0.90633         7.16596
   C       -6.38698         0.16053         7.92969
   S       -4.79188         0.70347         7.52577
   C        0.43140        -0.80474         1.88217
   C        1.67985        -1.23302         1.39041
   C        2.37937        -1.99612         2.27380
   S        1.50159        -2.18948         3.75397
   C       -7.15140         0.82401         9.02250
   C       -6.54348         0.51002        10.39099
   C        3.73735        -2.58937         2.12375
   C        4.76119        -1.85747         2.99438
   C        0.82292        -0.20198         8.54273
   S        2.52726        -0.35845         8.27879
   C        2.86254        -0.07108         9.96725
   C        1.69022         0.15072        10.66019
   C        0.54963         0.07815         9.86483
   C        4.20562        -0.08736        10.47508
   C        5.31298         0.05495         9.64813
   C        6.62670         0.04599        10.11768
   C        6.95280        -0.11767        11.45573
   C        5.84595        -0.26190        12.34436
   C        4.49931        -0.26936        11.86289
   N        6.07256        -0.33865        13.66240
   C        5.07505        -0.49817        14.49481
   C        3.74789        -0.64981        14.00059
   N        3.50102        -0.50576        12.72235
   C        8.31574        -0.12969        11.92232
   C        2.61131        -0.96009        14.88387
   C        5.38394        -0.52255        15.93457
   C        1.42972        -0.21604        14.83085
   C        0.37309        -0.47703        15.68270
   C        0.41797        -1.49889        16.64962
   C        1.60290        -2.24036        16.69702
   C        2.65805        -1.97382        15.83331
   C        4.66913         0.22235        16.86476
   C        4.92975         0.16668        18.22842
   C        5.94382        -0.64737        18.74322
   C        6.66956        -1.39426        17.79645
   C        6.40110        -1.33492        16.44198
   S        9.58600         0.67162        11.03505
   C       10.20072        -0.52605        13.21228
   C        8.81963        -0.72101        13.05497
   F        4.16059         0.92862        19.03530
   F        1.77187        -3.24238        17.58630
   C       10.74411         0.21482        12.20741
   O       -0.67348        -1.63647        17.40462
   C       -0.76418        -2.65235        18.40088
   C       -2.14379        -2.53515        19.02480
   F       -0.74053         0.26153        15.60130
   F        7.65028        -2.18941        18.24247
   O        6.30949        -0.80655        20.01653
   C        5.65685        -0.10262        21.07068
   C        6.33098        -0.52420        22.36461
   F        3.69695         1.05209        16.45230
   F        7.11039        -2.10400        15.61609
   F        1.32008         0.79384        13.96758
   F        3.74699        -2.75484        15.92497
   F        7.59489         0.19246         9.19785
   F        5.15258         0.21862         8.32361
   C      -20.50107        -3.05698        -2.31164
   C      -21.40510        -1.98918        -2.14478
   C      -20.92459        -0.66273        -2.02303
   C      -19.57295        -0.33652        -1.99901
   C      -18.66830        -1.41372        -2.09254
   C      -19.15043        -2.73479        -2.26557
   C      -22.81829        -2.04869        -2.07671
   C      -23.41526        -0.82666        -1.97653
   S      -22.24307         0.47649        -1.93508
   C      -17.25441        -1.37618        -2.02970
   C      -16.66443        -2.59393        -2.20384
   S      -17.84016        -3.87051        -2.43909
   C      -20.97200        -4.40725        -2.54220
   C      -19.13393         1.04021        -1.89686
   C      -21.99273        -4.81666        -3.35387
   C      -22.17643        -6.21338        -3.35586
   C      -21.30965        -6.87468        -2.54130
   S      -20.22615        -5.77165        -1.75926
   C      -19.66721         2.04174        -1.13495
   C      -19.01391         3.27857        -1.30130
   C      -17.99372         3.23792        -2.20091
   S      -17.80964         1.64468        -2.85526
   C      -21.18742        -8.34065        -2.30680
   C      -19.90095        -8.89537        -2.92143
   C      -17.06815         4.33128        -2.60950
   C      -15.64975         4.08235        -2.09247
   C      -15.27446        -2.90245        -2.19363
   S      -14.10447        -1.75418        -1.62933
   C      -12.80253        -2.86951        -1.93423
   C      -13.28254        -4.05627        -2.44325
   C      -14.66977        -4.07955        -2.57686
   C      -11.43618        -2.54729        -1.62401
   C      -11.08538        -1.68447        -0.59533
   C       -9.76154        -1.44742        -0.22561
   C       -8.67586        -2.02857        -0.86909
   C       -8.99352        -2.87663        -1.97333
   C      -10.35004        -3.12060        -2.34964
   N       -8.00968        -3.49906        -2.63454
   C       -8.28666        -4.25550        -3.66774
   C       -9.63019        -4.38670        -4.12260
   N      -10.61176        -3.84951        -3.44172
   C       -7.32367        -1.82770        -0.42448
   C       -9.98016        -5.11568        -5.35319
   C       -7.16195        -4.93319        -4.33330
   C      -10.99379        -6.07733        -5.35888
   C      -11.30827        -6.78707        -6.50239
   C      -10.63680        -6.58750        -7.72325
   C       -9.62517        -5.62189        -7.71103
   C       -9.31800        -4.91093        -6.55750
   C       -7.19692        -6.27709        -4.68527
   C       -6.15479        -6.90211        -5.35889
   C       -4.99602        -6.20487        -5.71555
   C       -4.96088        -4.84670        -5.34773
   C       -6.00392        -4.23237        -4.68096
   S       -6.97920        -1.41946         1.23580
   C       -5.00691        -1.75687        -0.38097
   C       -6.15576        -1.96003        -1.14377
   F       -6.31009        -8.20986        -5.65737
   F       -8.90339        -5.34336        -8.81784
   C       -5.27204        -1.47081         0.94091
   O      -11.04499        -7.34329        -8.74436
   C      -10.45954        -7.22193       -10.03858
   C      -11.18609        -8.20099       -10.94412
   F      -12.28257        -7.70466        -6.46504
   F       -3.87096        -4.13789        -5.66740
   O       -3.92126        -6.66300        -6.35975
   C       -3.83066        -8.02220        -6.78035
   C       -2.48539        -8.18183        -7.46672
   F       -8.25937        -7.02879        -4.35303
   F       -5.90580        -2.93252        -4.40155
   F      -11.65215        -6.35340        -4.23354
   F       -8.35382        -3.97929        -6.64131
   F       -9.56299        -0.61579         0.81137
   F      -12.03877        -1.06552         0.12039
   C      -39.00023        -5.05918         3.03867
   C      -39.05131        -5.80041         4.23265
   C      -37.86577        -6.07562         4.95140
   C      -36.60422        -5.65133         4.54128
   C      -36.54893        -4.95071         3.32067
   C      -37.73846        -4.67408         2.60276
   C      -40.19708        -6.35980         4.87185
   C      -39.89971        -6.99287         6.02405
   S      -38.21411        -6.96679         6.41059
   C      -35.40542        -4.45480         2.64874
   C      -35.69086        -3.79253         1.49070
   S      -37.40995        -3.76124         1.15459
   C      -40.20972        -4.70402         2.32101
   C      -35.42760        -5.90083         5.34777
   C      -41.37806        -4.21290         2.82946
   C      -42.35409        -3.96496         1.84299
   C      -41.94184        -4.27512         0.58423
   S      -40.31421        -4.87159         0.59184
   C      -35.11235        -7.02256         6.06269
   C      -33.90263        -6.90922         6.77524
   C      -33.29619        -5.69975         6.62820
   S      -34.21341        -4.67168         5.57951
   C      -42.68196        -4.12706        -0.70031
   C      -42.08437        -3.01132        -1.55947
   C      -32.00100        -5.22967         7.19412
   C      -30.92826        -5.12223         6.10820
   C      -34.77041        -3.16667         0.60492
   S      -33.06665        -3.24668         0.89437
   C      -32.73024        -2.26951        -0.51421
   C      -33.90745        -1.93412        -1.15415
   C      -35.04614        -2.43894        -0.53346
   C      -31.38640        -1.89515        -0.85241
   C      -30.27725        -2.49849        -0.26785
   C      -28.96108        -2.13236        -0.55060
   C      -28.63468        -1.08513        -1.39932
   C      -29.73943        -0.44154        -2.02979
   C      -31.08432        -0.86333        -1.79774
   N      -29.50036         0.57064        -2.87045
   C      -30.48459         1.14492        -3.51596
   C      -31.81433         0.66571        -3.35527
   N      -32.07001        -0.29051        -2.49632
   C      -27.27810        -0.66584        -1.63260
   C      -32.95505         1.19071        -4.12218
   C      -30.12996         2.26037        -4.40601
   C      -32.91160         1.38721        -5.50266
   C      -33.98241         1.91976        -6.19354
   C      -35.17956         2.29103        -5.55379
   C      -35.22563         2.07214        -4.17254
   C      -34.14409         1.53472        -3.48420
   C      -29.04323         2.15170        -5.27108
   C      -28.70818         3.16029        -6.16699
   C      -29.44299         4.34890        -6.24220
   C      -30.52098         4.46098        -5.34477
   C      -30.84945         3.45426        -4.45801
   S      -25.95259        -1.78851        -1.52375
   C      -25.43754         0.67187        -2.07003
   C      -26.82393         0.59796        -1.93897
   F      -27.64276         2.94855        -6.96585
   F      -36.32649         2.37473        -3.45514
   C      -24.80846        -0.54061        -1.89413
   O      -36.12710         2.79985        -6.34292
   C      -37.37258         3.25016        -5.81301
   C      -38.17318         3.80079        -6.98018
   F      -33.89100         2.09394        -7.51964
   F      -31.24759         5.58759        -5.36225
   O      -29.24841         5.39160        -7.05109
   C      -28.21783         5.38422        -8.03734
   C      -28.33081         6.69194        -8.80119
   F      -28.30963         1.03935        -5.28452
   F      -31.87524         3.65646        -3.61401
   F      -31.81728         1.03106        -6.19587
   F      -34.25964         1.38203        -2.16457
   F      -27.99260        -2.81621         0.08138
   F      -30.43783        -3.49770         0.61782
   H       -5.62740        -0.83547         3.66233
   H        1.19927        -0.65404         5.79902
   H       -5.86126        -2.13740         5.58165
   H       -7.69752        -1.40343         7.25845
   H       -0.23757        -0.17467         1.32446
   H        2.04519        -0.98339         0.40996
   H       -8.18619         0.47677         8.98865
   H       -7.14787         1.90614         8.86980
   H       -6.54761        -0.56301        10.56920
   H       -7.11364         0.99646        11.17842
   H       -5.51570         0.86305        10.43514
   H        4.03300        -2.52705         1.07426
   H        3.71275        -3.64384         2.41081
   H        4.80775        -0.80583         2.72097
   H        5.74792        -2.29461         2.86458
   H        4.48474        -1.92860         4.04390
   H        1.67549         0.37724        11.70665
   H       -0.45088         0.22809        10.22986
   H       10.76686        -0.92108        14.03636
   H        8.21549        -1.29263        13.72993
   H       11.76555         0.51508        12.08061
   H        0.01377        -2.50444        19.15815
   H       -0.63247        -3.63894        17.94310
   H       -2.26922        -1.55241        19.47016
   H       -2.26320        -3.29409        19.79199
   H       -2.90831        -2.67058        18.26518
   H        4.59236        -0.36109        21.09089
   H        5.75805         0.97764        20.91848
   H        6.23741        -1.59788        22.50031
   H        5.86406        -0.01523        23.20232
   H        7.38664        -0.27027        22.33476
   H      -23.37889        -2.96587        -2.08726
   H      -16.68104        -0.48423        -1.85421
   H      -22.56564        -4.14172        -3.96453
   H      -22.92953        -6.70948        -3.94243
   H      -20.47852         1.89042        -0.44623
   H      -19.29468         4.17077        -0.76998
   H      -22.05337        -8.83982        -2.74683
   H      -21.18568        -8.54219        -1.23248
   H      -19.88630        -8.71661        -3.99423
   H      -19.82946        -9.96577        -2.74556
   H      -19.03380        -8.41021        -2.47920
   H      -17.44621         5.27567        -2.21207
   H      -17.04326         4.40484        -3.70009
   H      -15.64926         4.01002        -1.00723
   H      -14.99232         4.89635        -2.38730
   H      -15.25773         3.15326        -2.50014
   H      -12.64517        -4.88507        -2.67953
   H      -15.22614        -4.92389        -2.94302
   H       -4.00594        -1.81764        -0.76972
   H       -6.14765        -2.17959        -2.19226
   H       -9.39176        -7.46297        -9.99046
   H      -10.57691        -6.19742       -10.40855
   H      -11.07162        -9.21311       -10.56676
   H      -10.77531        -8.14412       -11.94755
   H      -12.24516        -7.96191       -10.97677
   H       -4.64561        -8.25443        -7.47482
   H       -3.90126        -8.68800        -5.91309
   H       -2.41890        -7.50832        -8.31638
   H       -2.37022        -9.20512        -7.81091
   H       -1.68314        -7.94467        -6.77396
   H      -41.18917        -6.29831         4.46388
   H      -40.56967        -7.49862         6.69163
   H      -34.39663        -4.58576         2.99540
   H      -41.51923        -3.99671         3.87363
   H      -43.33033        -3.57002         2.06338
   H      -35.70802        -7.91726         6.04987
   H      -33.49792        -7.70081         7.38079
   H      -43.72790        -3.90391        -0.47901
   H      -42.64316        -5.06663        -1.25763
   H      -42.12124        -2.06347        -1.02730
   H      -42.63965        -2.91148        -2.48882
   H      -41.04619        -3.23443        -1.79463
   H      -31.67861        -5.93358         7.96433
   H      -32.13657        -4.25035         7.66042
   H      -30.76712        -6.08978         5.63843
   H      -29.98898        -4.78313         6.53755
   H      -31.23600        -4.41437         5.34190
   H      -33.92366        -1.33871        -2.04516
   H      -36.04886        -2.27849        -0.88796
   H      -24.89772         1.57435        -2.29590
   H      -27.48421         1.43717        -2.04481
   H      -37.19966         4.03001        -5.06354
   H      -37.90317         2.41491        -5.34295
   H      -37.63418         4.61962        -7.44805
   H      -39.13397         4.16133        -6.62570
   H      -38.33400         3.02372        -7.72205
   H      -28.35251         4.53221        -8.71234
   H      -27.23807         5.30476        -7.55373
   H      -29.30727         6.76560        -9.27136
   H      -27.56143         6.73507        -9.56603
   H      -28.20891         7.53179        -8.12308
*
