154
 SCF done       -265.726196149714          0.000632587222
C          -1.49357328478889   -4.26022186139601   -2.18363402970306
C          -1.00595021626721   -3.45640221838133   -1.16606449892907
S          -0.33570043750040   -4.62370745026424   -3.41877444305762
C           0.84764876834636   -3.67830123510647   -2.55212586717617
C           0.32945610821145   -3.11581998338222   -1.36252934397384
C           2.17380710553354   -3.37489400694808   -2.76938457763597
C           2.71146234533868   -2.57796198459356   -1.75075381423078
S           1.51446097400149   -2.20727636691676   -0.51079357260544
C           4.04742460608596   -2.16563602177451   -1.77163237067948
C           4.76636390459349   -1.40915048941203   -0.87532737017616
C           6.16517768812412   -1.05558160436931   -1.00257674478315
C           6.52588884739983   -0.26464026208793    0.17645837099395
C           5.39245447444085   -0.13251644525189    0.99522185675574
C           4.25157140719512   -0.83494962538238    0.36983487222176
C           7.72390059707770    0.31595825944159    0.56202837365747
C           7.75414774027477    1.01344606976907    1.76100638872182
C           6.62276321987603    1.13712535475279    2.56706163346707
C           5.42095896837614    0.56093419211088    2.18839312699871
F           6.69847141679402    1.81859923255777    3.71730145221446
F           8.90189779153122    1.58028819498342    2.15053166987940
O           3.12336480592382   -0.90403099227004    0.82102805337392
C           7.02460811443612   -1.38192509807151   -2.01999142469526
C           8.38022657745870   -0.99232445901634   -2.06518798948684
C           6.70425143732046   -2.14240255378267   -3.16428173220178
N           6.53594628392435   -2.75076885106062   -4.12427854483691
N           9.48832366692394   -0.70944385086663   -2.16314541509274
C         -10.39770707235004   -7.32088497794207   -0.59553017034574
C         -11.51390253398088   -7.27515769243068    0.20602646144174
S         -10.21430704335343   -8.90468563073455   -1.37340950182727
C         -11.61113170621548   -9.51022541621109   -0.56932427242822
C         -12.19038760216491   -8.50875666742360    0.21574129914737
C         -12.23157803588501  -10.74591926883176   -0.47098740906284
C         -13.31462717285789  -10.71227697645715    0.39694401451369
S         -13.57406236128720   -9.09934756516441    1.05251551610631
C         -14.20048235029272  -11.74214472787640    0.76155690224439
C         -14.03179812404124  -13.09651600874846    0.67041863341574
C         -12.86780835869572  -13.93008374409837    0.48599306824248
C         -13.34395669451250  -15.26015591608274    0.09953086220887
C         -14.73940140251243  -15.30548990294451    0.26321393405261
C         -15.22729882193930  -13.97461626212156    0.69560830699626
O         -16.36098800966474  -13.65712378984994    0.97086830994441
C         -11.57906358933405  -13.64268189442577    0.85810775905510
C         -10.50005024792801  -14.53897414271047    0.71919691334015
N          -9.58127067292944  -15.21795423320196    0.60789473502746
C         -11.19212492680085  -12.45308399117071    1.50712476329661
N         -10.82390355651330  -11.52581615243646    2.07491414214420
C         -12.65799795017373  -16.38283081619456   -0.33366974783546
C         -13.39033811087847  -17.53300619178509   -0.58875836828576
C         -14.77305583713493  -17.57522080597909   -0.40904000264030
C         -15.46581987042753  -16.45417672223260    0.02047163735399
F         -15.43798854160737  -18.71002582683528   -0.65807084748018
F         -12.75045727560256  -18.62569334796937   -1.02043116883080
C          -9.99513102262458   -4.64617665351670    0.99356162260498
C          -9.01873433482110   -5.34474181000669    0.16486554384667
C          -9.28827371911524   -6.41345700975166   -0.74519449624416
C          -9.46756885909228   -3.35470893909695    1.53529056464175
C         -11.30967962729393   -4.88924029043953    1.21962223494975
C          -9.00431064696938   -3.26363523724179    2.84292157625373
C          -8.47263774093354   -2.07774514557295    3.31580036197480
C          -8.38940245047269   -0.95761920752611    2.49845216416745
C          -8.87126297494641   -1.04829855298287    1.19840550862541
C          -9.40263901598763   -2.23075592682556    0.71991500629935
C         -12.10784957456640   -6.14220574991918    0.98011657512749
C         -13.47583078046019   -5.82401392002772    0.41782126380323
C         -14.13234833945676   -4.72567007975446    0.80086698700901
C         -13.45113295991612   -3.79870882064273    1.67582056493937
C         -12.12108759913270   -3.86690050329027    1.85811548655056
C          -7.83401649314875    0.33686478968486    3.01942839983430
C         -15.51196265703582   -4.38311025370865    0.32188541929383
C          -7.71808378638315   -4.83345732277036    0.18211862909601
C          -6.77122484457785   -5.22751575749561   -0.74336810704759
C          -7.12647139427139   -6.12860839409156   -1.77517073499489
C          -8.36372487892274   -6.73591623734670   -1.74456554049595
C          -5.40716647216836   -4.87115465580078   -0.96680529125190
C          -5.01029920534722   -5.54638138733843   -2.15495485678977
N          -6.06976256010106   -6.28067755829181   -2.63523642661577
C          -6.03459480124924   -7.17172654757219   -3.76509170472675
C          -5.58244023543729   -8.57447900938587   -3.36306609572792
C          -4.51812913606650   -4.07031771196166   -0.25389755523972
C          -3.24614255401107   -3.94272517060220   -0.75077630686839
C          -2.86259833361157   -4.59995266289378   -1.95026920384963
C          -3.72887359388324   -5.41160314577402   -2.66682559296525
C          -2.07766158401503   -3.18249292495079   -0.14683011225497
C          -2.28364676226213   -1.68339504450869   -0.03876683402082
C          -3.33439124838542   -1.03609609659585   -0.67134098234015
C          -3.48130025468555    0.33469237747547   -0.55395311533854
C          -2.57914093038319    1.09103643816167    0.18103443097801
C          -1.51507162046221    0.43922668300802    0.79213852330735
C          -1.36660289129563   -0.92943197376326    0.68447125251306
C          -1.78182873425167   -3.79740308163980    1.21130779750512
C          -0.89373786799763   -4.85462969011899    1.34652006312276
C          -0.67907070875448   -5.43747467450982    2.58186856965333
C          -1.35303653304746   -4.99009667878996    3.70963272514195
C          -2.24582375134259   -3.93568637717870    3.56773007452745
C          -2.46119840809065   -3.34750968275462    2.33637869485258
C          -8.95127937483398    1.20407933089130    3.60254329907575
C         -15.47222973730132   -3.23357580666303   -0.68546733753467
C          -2.78124523331280    2.56819154471390    0.35956194195057
C          -3.65445631795382    2.83785077312980    1.58702813785646
C          -1.08819331323275   -5.59841694293027    5.05641205389293
C           0.05746163850051   -4.86599343194993    5.75778102506023
H           2.75262310760674   -3.70380139435007   -3.61373804607052
H           4.58367895105057   -2.51847451904422   -2.64422588824255
H           8.62706375506313    0.25074007323264   -0.02176602162451
H           4.54285086680989    0.65256660869348    2.80741558865880
H         -11.93831277377581  -11.61921036174714   -1.02452337933312
H         -15.18015457978611  -11.42956266184629    1.11013705242860
H         -11.59135852127385  -16.39767152426536   -0.48790734194162
H         -16.53466241297100  -16.48508487311685    0.15930842062225
H          -9.05441253648188   -4.13137082450285    3.48518506413494
H          -8.10861900276769   -2.02389790937527    4.33211986893414
H          -8.82167135406506   -0.18417516393714    0.55112575465825
H          -9.76514502744915   -2.29324759842627   -0.29605942458287
H         -12.30066367483950   -6.54090557601190    1.99786097744517
H         -13.92338923042846   -6.54633217424297   -0.24675362914376
H         -14.02568066305205   -3.00232139927857    2.12504590637652
H         -11.61989335583970   -3.09287290577279    2.41781640767077
H          -7.09133644585996    0.13713888851423    3.79452108339478
H          -7.34301015033220    0.87999089832825    2.20899649584219
H         -15.96825085342361   -5.25903556225461   -0.14238406926515
H         -16.12613414337371   -4.09132488486107    1.17735517066601
H          -7.43370090807040   -4.10548388894170    0.92332223215552
H          -8.62011322565849   -7.49135179127678   -2.47196074363937
H          -7.03617049275103   -7.21065094383276   -4.20171294487766
H          -5.35390627420362   -6.75587517346754   -4.51244249586705
H          -6.26292801575042   -8.99338770878127   -2.62549375960586
H          -5.56567746475111   -9.22529268360748   -4.23275889507218
H          -4.58482233499590   -8.54009749386423   -2.93164717674722
H          -4.82653271930935   -3.57857366007580    0.65518441741766
H          -3.40038168137167   -5.91041688622184   -3.56525859453255
H          -4.04742417039435   -1.60151844786336   -1.25336774304685
H          -4.31137396434492    0.82285822009793   -1.04504552836080
H          -0.79290020589388    1.00815259472558    1.35930600456308
H          -0.53713526586227   -1.41869886649358    1.17365622184145
H          -0.36314763218611   -5.23065831107318    0.48384287115364
H           0.01982426495115   -6.25726570157890    2.66835480269387
H          -2.78262985450099   -3.57217060134155    4.43252309116559
H          -3.15581865744976   -2.52452447698257    2.24982622572409
H          -9.44254332211655    0.68632631944124    4.42341585080655
H          -8.54933398628302    2.14334803495195    3.97514564109403
H          -9.69707021292395    1.42250588179723    2.84134533186496
H         -14.87770074472621   -3.51362556503988   -1.55232046909900
H         -16.47729389969615   -2.98642847641062   -1.01893670294759
H         -15.02732162033453   -2.34745331358629   -0.23855136677718
H          -1.81633796224833    3.06186332897271    0.48898550826766
H          -3.26465816102290    2.98734417027986   -0.52526107281022
H          -3.18097899688398    2.43997067942025    2.48177149426831
H          -3.80686563729980    3.90637130075166    1.71993533625027
H          -4.62479613870429    2.35935165490920    1.47295864841115
H          -1.98669031633393   -5.53627947044456    5.67369323445140
H          -0.82485188842064   -6.65178314079696    4.94147611989109
H          -0.19195487388479   -3.81604528492524    5.89353111584762
H           0.25065686076740   -5.30690738423914    6.73292965350654
H           0.96560676093693   -4.92666319322598    5.16232767968639
