147
 SCF done       -252.538142907481          0.000655611929
C          -1.99955080392243    0.88588243137753   -1.17963574223168
C          -1.92088897543310    1.65715566275683    0.00017213908635
C          -3.34144868809363    0.20753378693447   -1.29710422621440
C          -4.06137562730282    0.81803311875063   -0.13351276714222
C          -3.19108558941462    1.61850396385353    0.61308486954095
C          -4.10501219108476    0.47842553729840   -2.57803841845238
C          -3.04076877640808   -1.27866636577678   -1.14099322211227
C          -5.34248891072839    0.81035105599350    0.39680608539157
C          -5.43679925738870    1.59892717129281    1.56460860298591
S          -3.91981073479224    2.34559519127876    2.00522822659325
C          -3.44726822753889   -2.01479445050839   -0.03990111182564
C          -3.08071764262114   -3.34415057119552    0.07752178267604
C          -2.29555850342957   -3.95910299418383   -0.88747039476901
C          -1.90241906010597   -3.21537965386515   -1.99387381172318
C          -2.27166545334977   -1.89208350567978   -2.12283784646889
C          -5.19238802006016   -0.32911513733946   -2.88683746940849
C          -5.94719859653779   -0.07618698439319   -4.01452428827860
C          -5.63460088979027    0.98223149709846   -4.85947789168382
C          -4.54748699475237    1.78437543047347   -4.54157542536620
C          -3.78904402059031    1.54132467289475   -3.40995497472383
C          -8.96376784366309    0.76064560637367    1.71257554334133
C         -10.00735332899082    0.11852978392363    1.08670509376230
C         -11.37789832460620    0.10424725127631    1.55543369317020
C         -12.16862067922484   -0.64083316458044    0.57365754621059
C         -11.31553190296090   -1.08310537162827   -0.45112663693634
C          -9.93550039529434   -0.63699848580217   -0.16623299684685
O          -8.95483258698094   -0.86686836093341   -0.84940149823930
C         -11.87765173511669    0.66400949909423    2.70409451731860
C         -13.23321716994008    0.59759205162785    3.09075834970416
N         -14.31844479738622    0.58092474418870    3.46375754509958
C         -11.13414866524175    1.37657503571409    3.66785184493957
N         -10.60253145141533    1.96657111504343    4.49838332583136
C         -13.52073583842359   -0.94051588113348    0.52036593347706
C         -13.98309928472313   -1.67712676022184   -0.56075727117361
C         -13.12698305349189   -2.11248762100715   -1.57223847766762
C         -11.77382006210111   -1.81746647175703   -1.52632451581057
F         -15.28514495062524   -1.97454917268936   -0.63073262174068
F         -13.61669494543140   -2.82075950781700   -2.59698096623592
S          -6.85420440397487    0.10484818576821   -0.02872648023439
C          -7.61287491115564    0.86956933206570    1.37015611823282
C          -6.70104075863826    1.63244121206258    2.12906347126639
S          -0.43905630331555    2.21851128774804    0.73187336246151
C           0.33654942128634    1.22540504526613   -1.71306067438113
C          -0.85545032799033    0.83539792861669   -1.90451881536997
C           1.49531485699104    2.11648223740174   -1.63280353404718
C           0.87984123842106    1.52500595838496   -0.31261869283930
S           1.20166784441939    3.73714019159978   -2.16498681408541
C           2.87436725555110    1.42842522481269   -1.82299758851016
C           2.95429236683773    0.49266726810228   -0.64400479446979
C           1.87451513532119    0.64913416381378    0.21586959910155
C           2.82420200548994    0.75571052024201   -3.17780811892066
C           3.99999521939243    2.43648146054049   -1.66039858168196
C           2.84879260843747    1.53986507419391   -4.32658496808063
C           2.73923458745420    0.95494605557192   -5.57272527085010
C           2.59201472287197   -0.42074625046451   -5.70669360401288
C           2.54174596039123   -1.19398208546129   -4.55521835688113
C           2.64475017393862   -0.61449136388365   -3.30334115038099
C           3.94436799145019    3.34611585941894   -0.61110259726976
C           4.96687074407044    4.25405982585636   -0.41351685589404
C           6.07633390961158    4.27007550390250   -1.24827012430240
C           6.13643225864562    3.34476353704229   -2.28150934889291
C           5.11463593755928    2.43632892434978   -2.48701189468615
C           2.52755524244199   -1.05602777776602   -7.06505229041265
C           3.93648644407075   -1.36528504912417   -7.57551293897693
C           7.21024598307361    5.22271204246889   -1.00495201642139
C           8.25808581351948    4.58108898140140   -0.09273700990407
C           3.89136467848599   -0.44007424989600   -0.19785253852442
C           3.51872548631577   -0.97810464113652    1.03865706580930
S           2.01313284458717   -0.29205705157130    1.63715620485710
C          -7.02886179196387    2.43910862998951    3.34290918816158
C          -7.59057924502168    3.80904759900049    2.95172568467145
C           4.18020961780647   -1.88213380050518    1.89850528321372
C           4.98246569695174   -2.95267053933173    1.61421839203605
C           5.16888971821313   -3.74085002655481    0.42390890291336
C           6.37321346794711   -4.54855750748274    0.61619241836802
C           6.79743128910670   -4.41639735237637    1.95018732802112
C           5.90188394407681   -3.47107720426120    2.65871670434280
C           7.06929352962544   -5.36650098678404   -0.25820233300441
C           8.18207711931015   -6.03764681816598    0.22812349732828
C           8.59142254455669   -5.90987765913719    1.55555933358161
C           7.89804694979335   -5.09284571736041    2.43577393702514
O           5.93399529036597   -3.15438731298497    3.82442488966148
C           4.26588765411837   -3.89758996985478   -0.60022742043431
C           4.46891578576038   -4.73365821011569   -1.71613168338405
C           2.99120339040356   -3.30257501378940   -0.61995415069651
N           1.92138473933520   -2.88826691012677   -0.68402470670271
N           4.58462484827119   -5.37900074783533   -2.65853143019844
F           9.66691185749974   -6.58122178604475    1.98317555407287
F           8.87806175016840   -6.82271470180424   -0.60110967069515
C           5.21088722072737   -0.65307743071040   -0.86915601761193
C           6.32331712061751    0.06389674673464   -0.10022123966878
C          -6.49075169522352    1.27763539575289   -6.05665122272177
C          -7.70981174143671    2.10650847205327   -5.64673355273502
C          -1.82251205686130   -5.37159358415571   -0.70978240178640
C          -0.51975465333872   -5.38623055918936    0.09354033281331
H          -4.05118488945683   -1.55894886101061    0.73056949060924
H          -3.40590273972630   -3.90795361886599    0.94005866227524
H          -1.29223154581324   -3.67523257987751   -2.75707517315680
H          -1.95625355358713   -1.32531810550999   -2.98753235961591
H          -5.44637451558454   -1.15746150631776   -2.24222978347685
H          -6.79182644441232   -0.71011590717430   -4.23984989200315
H          -4.28789577928983    2.61339175678309   -5.18413341245183
H          -2.95014774911399    2.18316475536564   -3.18117913056073
H          -9.21798181732628    1.28895895233639    2.62099316386082
H         -14.22520068118530   -0.62909542851960    1.27374205113382
H         -11.10756799216979   -2.15204796256381   -2.30529264477605
H           2.94297175488023    2.61210329569811   -4.23868352449510
H           2.76068134795952    1.57774960295658   -6.45534741755945
H           2.41168522038527   -2.26398099074256   -4.63177423327420
H           2.57146748216373   -1.23691674900102   -2.42410658550168
H           3.09553064015452    3.35250663152005    0.05747728201076
H           4.89961545450442    4.96054562344946    0.40092007150766
H           6.99243915592127    3.33592222747241   -2.94091668444299
H           5.18826727004682    1.73240883355195   -3.30275933891248
H           1.95246993407084   -1.98246636578558   -7.01374314492025
H           2.03080521578970   -0.38178617607197   -7.76566661119579
H           4.44231020219489   -2.04901661138341   -6.89733715108883
H           3.89168862626620   -1.82321067392548   -8.56068615785442
H           4.52373796913424   -0.45206265399228   -7.64326584113926
H           7.67673733711237    5.49264619266696   -1.95433846946902
H           6.83413685623502    6.13404806491210   -0.53677751626856
H           8.65321852377908    3.67522959534876   -0.54759834873982
H           9.08141906739975    5.26916399026077    0.08286052952150
H           7.81571969328519    4.31724612796902    0.86546277171251
H          -7.74886657918136    1.92038855970013    3.97731315580245
H          -6.11059841675284    2.58223544551951    3.91625083716610
H          -8.50750003285847    3.70039060614413    2.37744492007160
H          -7.81098211871015    4.38421173049179    3.84618147043736
H          -6.86848408077450    4.35789359934656    2.35169637887490
H           4.06311185135339   -1.68328341117308    2.96084823402185
H           6.79110741611409   -5.49435623060209   -1.29178764768212
H           8.21349655922150   -4.99474845146962    3.46220104176374
H           5.45304279644794   -1.71256467962750   -0.94346859891420
H           5.15242707050725   -0.25088319458485   -1.88058472793544
H           6.41077734792597   -0.33424013252362    0.90849786597863
H           7.27289353745364   -0.07144487290008   -0.61130858708954
H           6.11370319905731    1.12911178091632   -0.03769479000611
H          -5.91303471571056    1.82845460477770   -6.80118757693005
H          -6.82842288264035    0.34250236115087   -6.50810431273872
H          -7.39489123097014    3.05506678036855   -5.21735534212077
H          -8.34068077927301    2.30789219526501   -6.50921986200005
H          -8.29656194681052    1.57266598390530   -4.90253693929781
H          -2.57894824389380   -5.95798815185588   -0.18428060639439
H          -1.64883428534807   -5.82969568599369   -1.68507390990545
H          -0.68687944871940   -4.99137183551946    1.09324946593152
H          -0.13669236925751   -6.40047479938194    0.17921417897650
H           0.23060090970025   -4.76681815727617   -0.39345415198385
