97
 SCF done       -191.213916959257          0.001068415210
C          -1.36874864065359    1.53125899575046    3.95274451004946
C          -1.46705453892451    2.94134346515743    4.02666903846398
S          -1.05301731533999    3.75004348484331    2.51241919940031
C          -0.74318690861471    2.22700092422282    1.81512216606004
C          -0.93518876859434    1.13537647134674    2.68688881639969
N          -0.64204015809252   -0.03363896036276    2.00125803302085
C          -1.11303560637439   -1.33707857936070    2.41693914694182
C          -0.26995638769382    0.30682025400841    0.70952904001755
C          -0.36392685286991    1.71776540590400    0.56790646404435
C          -0.20119869378394    2.36434221079330   -0.67656375930499
N          -0.29562611365008    3.65372420868190   -0.96096929660035
S          -0.11408159216017    3.84276417412480   -2.55559259370123
N           0.09507220091147    2.28746303782937   -2.94924742035796
C           0.03119421281736    1.56416153473265   -1.84171318671067
C           0.22486223066530    0.17475135360859   -1.68172458312367
C           0.15911118102013   -0.45960310090835   -0.40656033177932
N           0.53641363453306   -1.78985176651746   -0.56185641582660
C           1.15539458391084   -2.67792266989956    0.40047336559618
C           2.48313572403972   -2.10772393358578    0.89331907885676
C           0.81838228370669   -1.98609105000854   -1.88910976542486
C           0.61029342365796   -0.80371326284979   -2.60893650300539
S           0.95245286417169   -0.93895681316405   -4.29773085726255
C           1.40282170275781   -2.60440942256224   -4.04145289059663
C           1.28060368837305   -3.02099157000894   -2.70703551249013
C          -0.18977012439837   -2.03185598566598    3.42125617214655
C           3.29043153840187   -6.29745144857037   -7.26225369305046
C           3.52009095532075   -6.09879949700967   -8.60348368367201
C           4.08881408467277   -7.07605496485570   -9.50913085627471
C           4.50411972059972   -8.34991206189019   -9.21537460495582
C           5.04886667376617   -9.24262583963508  -10.16316039232206
N           5.49405228535429  -10.01655944451948  -10.88403109569944
C           4.45578332602810   -8.96192023336848   -7.94555647075846
N           4.45469576222774   -9.53294629217724   -6.94820909256688
C           4.15903451675187   -6.45499858710310  -10.83357151552411
C           4.61736915676778   -6.93607317289285  -12.04994542599266
C           4.55869367451851   -6.09115050309305  -13.14878445029709
F           4.99670824237782   -6.53758258432494  -14.33130077793429
C           4.05707552393894   -4.79312799241127  -13.05108301816806
C           3.59647661459393   -4.30431036063219  -11.83877359199310
C           3.65507463832885   -5.14644562002076  -10.74667700224976
C           3.23745952773271   -4.87455931685956   -9.35501036290510
O           2.75892111642993   -3.83540922231247   -8.94044165784739
S           1.74948538473002   -4.68153959839211   -2.46835625718439
C           2.12529603258458   -4.81070546966787   -4.16862464808541
C           1.88375488032991   -3.61987927256500   -4.87372032465869
C           2.62931948381836   -5.84604802369565   -4.93844636667740
C           2.77702209074383   -5.44532748934353   -6.28072475677669
S           2.27250390612157   -3.77020864952329   -6.54044980413503
F           4.02128196888013   -4.01314572507846  -14.13785208303336
C          -1.73427061134710    6.07228355753824    4.57324430281097
O          -1.44525082958855    6.03434590402927    3.39333935725005
C          -1.96161580883603    7.29785183356990    5.37101405495588
C          -1.88411531905998    8.61301953127445    4.95985108215699
C          -2.13644932448127    9.59614391509404    5.90345757615276
C          -2.45607396411481    9.25367907332305    7.21721463041210
F          -2.69282444058480   10.22299264901269    8.10919790769806
C          -2.53605764820283    7.93109782615184    7.62816712040261
C          -2.28577603465841    6.94179310344251    6.69006785663004
C          -2.28772295459477    5.48095614763212    6.79556401992071
C          -2.56482697259760    4.78285604993370    7.94448239110489
C          -2.57774486014646    3.37975820647752    8.08221127866798
N          -2.60929229929573    2.24801553964481    8.28158818964142
C          -2.88118552964048    5.38501553718254    9.18097639758210
N          -3.14213370122660    5.79936246322835   10.21924375658823
C          -1.94215442847636    4.95038688475211    5.49296427608854
C          -1.83429683954100    3.60995573678218    5.19832674457388
F          -2.07179835391189   10.88624728198161    5.55179280530608
C           2.91553610896399   -7.20539858805502   -4.38837827959199
C           1.74640956827241   -8.15973030364825   -4.64849176569740
C          -1.64129204660834    0.65278126116823    5.13579550000494
C          -0.42615309340888    0.58909996147913    6.06737365586640
H          -2.10837274080952   -1.21545576461822    2.85725277418670
H          -1.24169787665565   -1.94142777225452    1.51665878910464
H           0.49078035896652   -2.88102599908868    1.23384888862429
H           1.33251187830076   -3.62391095229465   -0.11646404545028
H           3.16405126691220   -1.96606433840622    0.05728842680382
H           2.94241515040023   -2.79243753079285    1.60099807486605
H           2.33281097295974   -1.14444291191449    1.37650916204760
H          -0.28270020018622   -1.59366751050230    4.40808102153146
H          -0.45365153907272   -3.08407085476150    3.49529840460171
H           0.85085938204668   -1.94667878769810    3.12354167357601
H           3.55302210044208   -7.27532524739735   -6.88249955300997
H           5.01427958538366   -7.92927381295168  -12.18131869662794
H           3.20798955699492   -3.30178849416183  -11.75669687842572
H          -1.63584332893503    8.87090676952396    3.94265696708740
H          -2.78757433327554    7.72271773914832    8.65496856662503
H          -2.05899126924645    2.95035202878765    6.02389813781003
H           3.82495054169037   -7.62104093441903   -4.82479768833209
H           3.06753140563740   -7.11388792071072   -3.31049146955464
H           1.56955740374067   -8.27061835684334   -5.71536969094126
H           1.97214424827846   -9.13802670297373   -4.23397125131829
H           0.83785916335447   -7.78337840021101   -4.18370666591569
H          -1.90013818513146   -0.34997055686540    4.80354570065951
H          -2.49804709488421    1.02680748493599    5.69819084336068
H          -0.20966930392741    1.56977527364155    6.48183323742994
H          -0.62679130036789   -0.09027350787554    6.89124302122755
H           0.45736640292161    0.24810644060574    5.53184941086150
