91
 SCF done       -177.371657664847          0.000569711824
C          -0.20035937340970    2.86134546791926    0.92530385361672
C          -0.49473470441338    4.11250917069637    1.41808915945072
C          -0.15651762926590    5.37114443264266    0.78792566684711
C          -0.67424263249024    6.44132983631741    1.64390712444737
C          -1.30834421698431    5.86278265577878    2.75633038785272
C          -1.22216965223646    4.39055195612923    2.65665158648404
O          -1.68140712584382    3.58981512606876    3.45209264653218
C           0.52456823851899    5.56486411617978   -0.38668624932368
C           0.81148341008879    6.83321798241316   -0.93500651492269
N           1.07595207281887    7.83105203007210   -1.43673769665230
C           1.03814464825268    4.54971517015179   -1.22046011344744
N           1.48784210058519    3.78750418583938   -1.95309896110419
C          -0.62588204640322    7.82050087471514    1.51922981484727
C          -1.21536529600824    8.58635496178102    2.51513574606571
C          -1.84206936648038    8.00209655718915    3.61549579886596
C          -1.89518362541297    6.62343800352781    3.74740638122240
F          -1.17855186783010    9.91940380841787    2.41239209878606
F          -2.39753920051566    8.77932193599421    4.55299433009868
C          -0.46469239351552    1.59541162223692    1.45553629137163
S          -1.24426715525087    1.22855485520637    2.97506038243101
C          -1.06779492301982   -0.46364800411800    2.68376106190891
C          -0.43598274146791   -0.73525514247319    1.45490310808723
C          -0.09773836861802    0.42369882967600    0.78000528139909
C          -1.48700233680809   -1.44330038319617    3.60309905247499
C          -2.09826687513477   -1.20543347603810    4.83426401840336
C          -2.32188238427299   -2.38849495444925    5.56574403046507
C          -1.90510809055409   -3.52896731390840    4.87588975502787
S          -1.23778929993940   -3.13439164205901    3.32021633060883
O          -2.39056140400724    0.06735019399883    5.24240534895715
O          -2.92634732862434   -2.53405226249093    6.76081669162163
C          -3.66680374351802    0.56781817628180    4.83342076103995
C          -4.81101456934933    0.05122046464923    5.69513367161641
C          -2.56961861645124   -1.64496631993876    7.81981029988455
C          -1.35935580648571   -2.17425134661284    8.57691872613560
C          -1.96843615454048   -4.84252949176429    5.38443374711574
S          -2.53097377677061   -5.13415092223834    6.99289699271542
C          -2.21910548284440   -6.84320020764618    6.81637234729037
C          -1.68526685799440   -7.12932921835977    5.53026078602588
C          -1.54815688993881   -5.99866389789631    4.73746433091838
O          -1.35830903736689   -8.39614408128451    5.24892801220166
C          -0.97481555298877   -8.73642967493576    3.92571847401090
C          -2.16778734270015   -8.79027581307782    2.97934027201248
C          -2.48228194185122   -7.85742954892209    7.73081330859326
C          -2.94564312754501   -7.78123937962755    9.02755747178447
C          -3.25273867882374   -8.90869853392791    9.87659358856568
C          -3.58129729975176   -8.38111673577414   11.20358712495544
C          -3.50321455871282   -6.97922589430059   11.16104518203505
C          -3.11699746652967   -6.55170732796283    9.79789070494217
O          -2.95714931138860   -5.40015306928340    9.43110964628226
C          -3.28261324720733  -10.23522096926323    9.52715633670916
C          -3.59371759641698  -11.27991008846740   10.42217886209150
N          -3.83257410325107  -12.17598713008492   11.09906243565832
C          -3.03427661491676  -10.75651382997055    8.23986892819166
N          -2.86671085484663  -11.27391574328250    7.22782156442014
C          -3.93280259693690   -9.01596445642648   12.38377273418538
C          -4.19716746559881   -8.22714081483756   13.49439413720126
C          -4.11686702079556   -6.83646270584358   13.44172064362226
C          -3.76590216796769   -6.19391104476247   12.26502688180926
F          -4.53763431032350   -8.82186903143315   14.64454497695067
F          -4.38166673972909   -6.11337881664658   14.53830191649100
O          -0.27189511224258   -2.02470260806803    1.10100403155885
C           0.52022068986136   -2.32613408124801   -0.03742663667722
C           2.00918444137581   -2.14981968705204    0.23247433261619
H           0.31676533233855    2.82631805963194   -0.02560286690669
H          -0.15462085996268    8.32278714022819    0.69062999986093
H          -2.37784542541849    6.16748617964782    4.59697402091571
H           0.39542186640374    0.46307305113169   -0.17476759840495
H          -3.56907333351692    1.65176480093004    4.91962516259656
H          -3.84310936806465    0.31223107652178    3.78145264150723
H          -4.67238559034421    0.34978857054664    6.73090522901432
H          -4.87257673380324   -1.03410117598000    5.64949420513950
H          -5.74667085073672    0.46838400833546    5.33300279282801
H          -2.37577081359868   -0.64300978697076    7.42846736408278
H          -3.44497412756658   -1.62526014427255    8.47255920316865
H          -1.12411667734494   -1.50694627253570    9.40118769629900
H          -0.49636111263387   -2.23512844675240    7.91668791266886
H          -1.57809898856805   -3.16505843952116    8.96647825567392
H          -1.15882828015120   -5.97480821314944    3.73553128736274
H          -0.21179406321501   -8.03946531306898    3.55999434045724
H          -0.52902564112921   -9.72885962418004    4.02516168597910
H          -2.63459366760706   -7.81238700842036    2.88603637539135
H          -1.84006173675775   -9.12005731236112    1.99776693858463
H          -2.90487666105432   -9.49242346557028    3.36022707005587
H          -2.27535259061192   -8.84499699910419    7.33609109593074
H          -4.00792838019058  -10.08666210866888   12.47824073117606
H          -3.70352649599255   -5.11845574048936   12.21946199386780
H           0.29498877827146   -3.37390585299013   -0.24975276462280
H           0.20113681056073   -1.71728205476940   -0.89092028441432
H           2.30636808342280   -2.76626531494064    1.07700215929592
H           2.57645552872781   -2.45165241660003   -0.64277433279255
H           2.24318348124421   -1.11291396099048    0.46162667984447
