91
 SCF done       -177.338422515740          0.000584178699
C           1.23231583516479    2.77739873144090    1.01810627144774
C           2.28355218920388    2.33097870036973    1.77363141604023
C           3.22535740150050    1.25225268172087    1.60974880780933
C           3.86352549637513    1.03008336489784    2.90932901771552
C           3.49406157149733    2.07282938424703    3.77711733161017
C           2.54541957145312    2.97608546130146    3.08464310612116
O           2.05514261380235    3.99750950062858    3.50582353379210
C           3.64927475045322    0.70335617446053    0.42496056248340
C           4.60380578695574   -0.32872156214212    0.32895425441094
N           5.34321964418244   -1.19615714109284    0.19255483854221
C           3.23565645171847    1.16431285264249   -0.84028649084157
N           2.96439368121751    1.52858167214380   -1.89479913403128
C           4.73076855371241    0.04058086533162    3.34185488328105
C           5.21088021305954    0.12004628747421    4.64120400567368
C           4.84817312085193    1.16359170596187    5.49308898318274
C           3.98056334769844    2.15694917138194    5.06625212094772
F           6.03960360647341   -0.83142845118633    5.08412035751921
F           5.34126020098754    1.20431792643696    6.73626801733480
C           0.54130384296001    2.14158767541230   -0.02646538307368
S          -0.49442613832412    3.09753910562985   -1.05721234695663
C          -0.92921483051152    1.71238397084901   -1.98168648570572
C          -0.34288588476704    0.54674921332139   -1.46513418976983
C           0.48748004919959    0.79724763206950   -0.37747711180828
C          -1.78584138878348    1.75998014625721   -3.09965179873310
C          -2.30663191432443    2.90803310493764   -3.69135757011875
C          -3.21861616517429    2.62259129411821   -4.73243990721402
C          -3.34845727685864    1.24791538813889   -4.94316782650780
S          -2.34118814359530    0.32017685484401   -3.87341056772039
O          -1.91804072910448    4.15125913076510   -3.26394527625774
O          -3.89446732036171    3.45613925571199   -5.54831608664470
C          -0.70479970085972    4.62568991600074   -3.85849782823835
C          -0.40330123398207    5.99101956741839   -3.27016627579207
C          -3.94188231567313    4.85423144361180   -5.29884637255677
C          -4.73325071903225    5.22595813518762   -4.05163255663500
C          -4.08248312513584    0.62216576855365   -5.99472328358386
S          -3.35232446612268   -0.66163416626239   -6.89639717989881
C          -4.67729037642094   -0.68953704333249   -8.04744233030472
C          -5.64642356968228    0.22588831215146   -7.68126563018090
C          -5.33847842791574    0.94613894188346   -6.52145717988719
C          -4.57151041680962   -1.62521507188593   -9.09224482293040
C          -5.32676682938477   -1.81579755329510  -10.22067027448563
C          -5.04439360545236   -2.84410187837818  -11.20891046431854
C          -5.88844172317596   -2.58478345952367  -12.37478344054546
C          -6.73097274233549   -1.50054058819223  -12.08541329047729
C          -6.45298950575627   -0.99790310730062  -10.72041503091147
O          -7.05196505436194   -0.09872459253560  -10.17177203357087
C          -4.19675622890263   -3.91282766749365  -11.08067784098770
C          -3.98415694232053   -4.87572591676862  -12.09123650330758
N          -3.76562211222501   -5.69025506372746  -12.86954265479205
C          -3.44332577996849   -4.24667004884497   -9.93412285843722
N          -2.81296935607029   -4.60911501458446   -9.04523258963735
C          -5.96551132272991   -3.20645353905913  -13.61190536011247
C          -6.88990499782927   -2.72421769839788  -14.52634809151639
C          -7.72827920353969   -1.64998117184419  -14.22596775613682
C          -7.65604665376081   -1.02334988556021  -12.99275801815081
F          -6.97538149626638   -3.30615241919341  -15.72782012675334
F          -8.60761865002333   -1.22010196296623  -15.13895165592008
O          -0.63181284730736   -0.61957071272325   -2.06157574797609
C           0.11296924325392   -1.77234033364274   -1.69313118780083
C          -0.29212395523417   -2.89581424834576   -2.63087552182548
O          -6.23850132591180    1.79922452488266   -5.99373068878143
C          -6.41389215446856    1.79837974047720   -4.58227774512438
C          -7.82914574206211    2.27562940010275   -4.29608930543499
H           0.84008762730873    3.74236902737796    1.32456980588815
H           5.03899449143081   -0.78498171892613    2.72110962988989
H           3.70065902056365    2.96511063889803    5.72292822947855
H           1.00007336514018    0.03193795807757    0.17624741556744
H           0.11386821620857    3.92509231144924   -3.65250493171405
H          -0.82838741831679    4.68917599556670   -4.94921172463015
H          -0.28100691087462    5.90830299345658   -2.19421958981983
H           0.51076392108408    6.38242261935878   -3.70645668691282
H          -1.22088953888469    6.67721449140832   -3.47472140821000
H          -2.93298128894443    5.27236538492326   -5.24605266216610
H          -4.43703127050918    5.24707965048963   -6.19077652168074
H          -4.78335569258977    6.30849780542051   -3.97478104323433
H          -4.24873399555813    4.83850857338591   -3.15873931576957
H          -5.74490364657035    4.83318660330565   -4.11438845934338
H          -6.56188616437726    0.36850456391752   -8.22482449703183
H          -3.71320248551438   -2.27775849468477   -8.98263125171295
H          -5.34115080666532   -4.03737269003841  -13.89566255556936
H          -8.29975353207798   -0.19162562076201  -12.75468164013347
H           1.18617300295230   -1.55945093824973   -1.78220932014171
H          -0.11161311568453   -2.03801075123125   -0.65137438904431
H           0.25679862581116   -3.79874826779083   -2.38171058007385
H          -1.35775868699630   -3.08715883275498   -2.54270305377257
H          -0.07594520739588   -2.61730446222471   -3.65820878997535
H          -6.26131292678588    0.78411443957841   -4.19067584999367
H          -5.68758825293355    2.46211144548937   -4.10223603287099
H          -8.55174697564906    1.58781178406936   -4.72632908095358
H          -7.98854550933382    2.33760573552912   -3.22327175786482
H          -7.98270964429359    3.25559705105870   -4.73950962341583
