160
 SCF done       -264.760547749020          0.000822611156
C           1.15784043825658    0.39609243577769    0.49148479636201
C           1.30161466350088    1.50991064021519    1.28312935756359
C           2.37028929355807    1.73549055643286    2.23436755409348
C           2.22680374830973    3.09734158743610    2.74313257797279
C           1.06498296554885    3.67743770501449    2.15896216846647
C           0.44306635464124    2.69845078771467    1.25249436517967
O          -0.57782937003121    2.86191923771193    0.60550405562843
C           3.34113756524043    0.84658398716862    2.62531038138497
C           4.34925999557060    1.14171072329506    3.56547449303189
N           5.19877082646016    1.31286244258052    4.31936212940732
C           3.47590897512329   -0.48172086458123    2.17425332074024
N           3.65584631861462   -1.57496263725059    1.86766628261913
C           2.98730096597602    3.83051412692952    3.61390063887406
C           2.60856532076157    5.15814563098450    3.92315926490744
C           1.44238253930212    5.72773712241238    3.33705007692062
C           0.67133070946792    4.95246455188715    2.44128070809454
C           1.09189511792907    7.05231239052632    3.66245335772046
C           1.85797029425517    7.78657347108689    4.52705026386336
C           3.00703982647384    7.22703333153244    5.10437561436083
C           3.37401686243764    5.94189665855080    4.80975605214958
C           0.19894194033407    0.08275765574002   -0.47772001871886
C           0.28178701930646   -1.09051332356634   -1.24493573123465
C          -0.73648680638635   -1.19509017897984   -2.16392929535694
C          -1.61953478351028   -0.11408530114358   -2.10289533809478
S          -1.20216202794060    1.04743295722749   -0.92365031052210
C          -1.16932047220109   -2.16203150381788   -3.24435684492896
C          -2.34990612646745   -1.40499369780106   -3.83815199398458
C          -2.60894623579152   -0.23791514167995   -3.12582008371666
C          -0.08353457185662   -2.33840410593514   -4.29315864713699
C          -1.57776315049078   -3.45709490079304   -2.56363536626373
C           0.51086649900804   -1.20631179285409   -4.83151488456460
C           1.47806758916482   -1.29667307005017   -5.81669352736745
C           1.87086230363335   -2.54343722187833   -6.29232279601936
C           1.27274458232598   -3.68450829198234   -5.75574455680562
C           0.31107353996954   -3.58213624596560   -4.77406059378780
C          -2.89737210929941   -3.89072225903405   -2.51874340889099
C          -3.23504662181649   -5.04963016583236   -1.85216948388160
C          -2.26380006851733   -5.80891523055892   -1.19925131120483
C          -0.94196873306100   -5.37594922200878   -1.23501911966345
C          -0.61472962865939   -4.21287087243295   -1.90785717315589
O           2.80239594259238   -2.76016752109319   -7.25451372826948
C           3.44330990230704   -1.65193294475186   -7.85546714459510
C           4.41709192412771   -2.18962242532992   -8.89205844947672
O          -2.70596560249643   -6.92824846126478   -0.57174984020097
C          -1.78125369700612   -7.73034455124520    0.13679184902541
C          -2.55278602157889   -8.88599203602385    0.75406667317381
C          -3.10261790055907   -1.71885608836762   -4.98898718981993
C          -4.16202241786561   -0.82024114090210   -5.35448159527591
C          -4.43036524775045    0.32576353928093   -4.55480774525937
C          -3.66865661779545    0.62815986976837   -3.47111109775802
C          -2.85031832199006   -2.82703928615679   -5.79885776108416
C          -3.54205325559071   -3.04074344238270   -6.98395812889764
C          -4.59213187997345   -2.13393578027373   -7.35748146280576
C          -4.89555790813701   -1.06996176025922   -6.50690796816131
C          -3.20017152836658   -4.12639234794146   -7.83724456717698
C          -3.81491164147608   -4.30601479730200   -9.03544513131729
C          -4.82896573192724   -3.40198179999767   -9.41494256696187
C          -5.23971382779559   -2.35838350779090   -8.59059148808172
C          -5.57013576479782   -3.30736382162477  -10.63042911766450
C          -6.45220017493515   -2.23600163577661  -10.58637179826948
C          -6.34629552361009   -1.54255358807998   -9.24729877754053
C          -7.68627216200028   -1.66697445898488   -8.54589549984956
C          -7.87693145260289   -2.49980583462425   -7.44964022524500
C          -9.11911768008638   -2.61679055544835   -6.86269484957673
C         -10.21483857618847   -1.91057640533937   -7.35978531646084
C         -10.03236308004148   -1.08525323534163   -8.46505091393090
C          -8.78174709595085   -0.97514859306568   -9.04540537734720
C          -5.88414589143381   -0.10268408662123   -9.42676806120009
C          -4.85203375513476    0.16586848720717  -10.31435264197590
C          -4.36746129508225    1.44991659493522  -10.48721702638590
C          -4.90950838898638    2.50298583713391   -9.75851349596256
C          -5.94845077607667    2.23658914649528   -8.86594246414577
C          -6.42702220570727    0.95420254790355   -8.70425945414874
S          -5.57335183360763   -4.10989119855607  -12.13985481708341
C          -6.77619577507203   -2.97855927388458  -12.74475642424061
C          -7.16138765813163   -2.07122574427598  -11.76634791335716
O         -11.38950747409453   -2.09747103389566   -6.70575448537201
C         -12.54434305291974   -1.41750191186721   -7.15737583308736
C         -13.69758644320425   -1.81455632895447   -6.24949259664328
O          -4.51331093933314    3.79976069211280   -9.83610574110243
C          -3.46085519696922    4.14340293692515  -10.71592157924117
C          -3.22104368481638    5.63926627692927  -10.58413467985270
C          -7.28492779751847   -3.05640954323306  -14.05956637494196
C          -6.70230445093036   -3.60388729555051  -15.16336109488582
C          -5.33295081545048   -3.97097705682909  -15.44791041436443
C          -5.35545819791689   -4.88609195558534  -16.58386502422766
C          -6.66911547571534   -4.88327315348090  -17.13766212663408
C          -7.53898329563269   -4.01363962205808  -16.32182362624778
O          -8.69974227968722   -3.72710242813938  -16.51525608356856
C          -4.20882728584273   -3.35669613193350  -14.95628402010980
C          -4.23730222709983   -2.26035467767633  -14.07173687559456
N          -4.20991826364411   -1.33059436306258  -13.39744942252976
C          -2.89882181836446   -3.68401685237203  -15.35615345861395
N          -1.80967003858410   -3.91867889291285  -15.63548224645591
C          -4.37117776239763   -5.64905456011667  -17.14997956783357
C          -4.66513437200107   -6.42013016711650  -18.29838065998010
C          -5.97437022678889   -6.39852744236917  -18.85954943479491
C          -6.97843650442837   -5.61271495163285  -18.24865171221279
C          -6.23436666177752   -7.16542407953815  -20.01225857236866
C          -5.24927125969160   -7.92190055475767  -20.58697549217197
C          -3.96051911817971   -7.94512031472431  -20.03372506097152
C          -3.67516529573274   -7.21233285420639  -18.91398067718612
H           1.91481994667276   -0.37211186191207    0.59678477863248
H           3.87740318113888    3.43140137435463    4.07336812604537
H          -0.21534787709023    5.36682651338231    1.98474464553966
H           0.20585781000551    7.47788653130594    3.21407115286288
H           1.58264422233518    8.80208320423516    4.77013384847052
H           3.60087476727880    7.81937833826344    5.78446081624038
H           4.25793719771221    5.50636868993432    5.25245718733509
H           1.08482410118220   -1.79224651611869   -1.10884926736791
H           0.21353499809846   -0.22886433341217   -4.47917030713551
H           1.91343463997157   -0.38966382493664   -6.20537227758002
H           1.58084740577222   -4.64782897155561   -6.13061971440334
H          -0.13462948003664   -4.48415317680135   -4.38081916455461
H          -3.67515514013407   -3.32297198515613   -3.00530012319220
H          -4.25820007885449   -5.38894728934358   -1.81852106961663
H          -0.15942900450311   -5.93053109129417   -0.74181057363596
H           0.41732062766316   -3.89735620447423   -1.92830284227191
H           2.69899502680866   -1.00103113594923   -8.33510972798052
H           3.98175747894550   -1.06987703309663   -7.09440835891736
H           3.88011208231619   -2.76387788024169   -9.64199505804740
H           4.93501568524730   -1.36620315921648   -9.37544136751171
H           5.14533040708882   -2.83926109482923   -8.41432207337075
H          -1.01014767494935   -8.11146862883719   -0.54734491835597
H          -1.29247196462465   -7.13766881910041    0.92242926982451
H          -3.03462592553515   -9.46893224049215   -0.02599349760378
H          -1.87643448976427   -9.52599416442035    1.31317709401895
H          -3.31877348883318   -8.50381493034256    1.42310721745455
H          -5.24593777956214    0.96802785898606   -4.85293817114873
H          -3.84538000436002    1.51086161629857   -2.87603218843901
H          -2.07389451506154   -3.51999279538179   -5.51767347007358
H          -5.69927429271354   -0.40098686067582   -6.76627140428931
H          -2.41372467381121   -4.79284271173799   -7.51505930667503
H          -3.54275763130412   -5.11006127048067   -9.70224688533376
H          -7.05127473967309   -3.06436708073830   -7.04478532014114
H          -9.26839979740042   -3.25847420273406   -6.00888714211057
H         -10.85331037993010   -0.52492037661993   -8.88403884739570
H          -8.65743824353595   -0.32349555250075   -9.89728621386344
H          -4.41720400820816   -0.63147275634603  -10.89791300913940
H          -3.57107091043431    1.60974781102458  -11.19586806733111
H          -6.36801508828778    3.05827089455366   -8.30689852770549
H          -7.23911991507960    0.78335926424302   -8.01205963323716
H          -7.88593819359846   -1.30202973537274  -11.96097148575577
H         -12.38378465807753   -0.33103165187420   -7.11350186690874
H         -12.76560839585228   -1.69860935464499   -8.19655663062406
H         -13.47326923284143   -1.53832777033515   -5.22284987948818
H         -14.60721515559366   -1.31147275370330   -6.56484944278024
H         -13.84977304511667   -2.88952363690429   -6.29285462704220
H          -2.55073782220735    3.58795616704244  -10.44989890111180
H          -3.73586916536769    3.89189507080228  -11.74951001434577
H          -2.94602928455123    5.88198506561115   -9.56138622712682
H          -2.42161262134956    5.94638751479328  -11.25215027167818
H          -4.12698073563737    6.18311861217762  -10.83679717957340
H          -8.29746952165473   -2.68930302016529  -14.19957872540581
H          -3.37440221802339   -5.68843362375138  -16.73876542150916
H          -7.97664869435667   -5.59023980143077  -18.66032091529140
H          -7.22868140350983   -7.14404004312522  -20.43416691487576
H          -5.45760167287271   -8.50603613799551  -21.47093944406880
H          -3.19406331500342   -8.54599582963544  -20.50009312731163
H          -2.68339003007446   -7.22353861713333  -18.48596313076276
