110
 SCF done       -215.885635685966          0.000393148064
C           1.93914333886444   -1.68704951190213   -1.79612601629106
O           1.83787735834454   -2.89759810115206   -1.77061611123713
C           2.42198428243049   -0.90282097725337   -2.95571592489277
C           2.78794471189259   -1.36838393384416   -4.20298466645623
C           3.19404436947556   -0.43532898816419   -5.14287686016718
C           3.22775022900897    0.92269580146087   -4.82627616321670
C           2.86559623937605    1.38846575434415   -3.57095560133431
C           2.45857789672690    0.46022680279486   -2.62532397181675
C           2.02321966410126    0.61289096474715   -1.23710310522475
C           2.07133661949725    1.78625011042867   -0.53024101431542
C           1.76314407340041    1.94926661310074    0.83789859311604
N           1.55895211778281    2.17624507266217    1.94510683302724
C           2.49049067320470    3.01826423038457   -1.07680166684900
N           2.81447925317053    4.05122250282142   -1.45831360226655
C           1.62073851596304   -0.69552084303806   -0.75229416716351
C           0.95739988226407   -0.88300246683570    0.43837813698210
C          -0.91315006549510  -18.79959979144910    6.64779568701044
O          -0.56939972323499  -17.67841625692307    6.32479965319243
C          -0.11956001036772  -20.03620113828595    6.48011480145427
C           1.14907497055861  -20.17603237121342    5.95444239318773
C           1.68868950509062  -21.45165354909065    5.91062806133485
C           0.96432328469648  -22.54578324168770    6.38361992261216
C          -0.31139226452489  -22.40404971880793    6.91010663310072
C          -0.85826620082285  -21.13141465542846    6.95789761186450
C          -2.15221356084359  -20.65019176373681    7.44685833982400
C          -3.14368238474578  -21.44717030313470    7.95899604510996
C          -4.40241720236358  -21.00820082766000    8.42020763693293
N          -5.44814680413968  -20.73950845155407    8.81321385819420
C          -3.04344530347537  -22.84872478243371    8.09138045604017
N          -3.02983193580079  -23.98822289281266    8.22873460088815
C          -2.17201486362311  -19.21239862528130    7.27348987602835
C          -3.19133207185197  -18.37460862490804    7.65934807314816
C          -3.32040328475398  -16.98461330124461    7.56845611109661
S          -2.15429890689109  -15.86597813749547    6.85645582705208
C          -3.18654053916602  -14.54727324646993    7.24441754663089
C          -4.38104294828030  -14.96229473589577    7.90190003110212
C          -4.45120918334765  -16.32956183650915    8.07479757839235
C          -3.26357109661875  -13.15979583110617    7.15017842303533
C          -4.48458037266597  -12.76917858917423    7.74944029515248
N          -5.14989878191492  -13.87057212005447    8.21177365793259
S          -2.38426689534409  -11.79496671827384    6.57651836809055
C          -3.64941006752947  -10.71457473219291    7.16883320440653
C          -4.70039050665698  -11.39045732053231    7.74876701327393
C          -3.46993465861806   -9.31652865832170    6.94446953343202
C          -2.07814406054486   -6.27517599760503    4.95638992274371
S          -2.14822433258330   -4.52234587749742    5.05614603268226
C          -1.18834989401084   -4.40742927343294    3.62571870858736
C          -0.84558871671607   -5.67900785216799    3.10065605478906
C          -1.34946109103575   -6.72528969759606    3.85946593555857
C          -0.61531885263467   -3.46778739545934    2.77264153569424
C           0.05439751582278   -4.19442658106243    1.74686558824808
N          -0.11038683596348   -5.53977014375277    1.95505475567155
S          -0.45031740708730   -1.77664201864940    2.55716636850911
C           0.50639778434830   -2.04156292305404    1.08378108060411
C           0.67962496719450   -3.39484978505381    0.80614992048457
C           0.49111474249518   -6.59752471856763    1.18347244000417
C           1.87502820586496   -6.96234675757922    1.71576619393649
C          -6.45284927053903  -13.88255012633507    8.82637658299070
C          -7.56202388197533  -14.02037258070664    7.78586407935932
F           1.51032882677789  -23.76600767644210    6.33146308658122
F           2.91690674704526  -21.63554024230690    5.41109059936528
F           3.55439452445783   -0.84047844724965   -6.36751005586138
F           3.61667723769622    1.80325027930437   -5.75587502185518
S          -2.52453214996557   -8.87173180498563    5.55430226496518
C          -2.69629922486645   -7.16482801603495    5.87469501693454
C          -3.43900357804271   -6.97358724618684    7.03658133021795
C          -3.88188078186153   -8.19076806845858    7.64228769415585
C          -3.72574712321585   -5.66316430596927    7.60070924601304
C          -4.36645588907763   -5.68573639750364    8.90760777224375
C          -4.78015614618015   -6.90170258578829    9.53794419461933
C          -4.61961245244678   -8.21370085054538    8.91376092881004
C          -4.60252245337877   -4.57235965771873    9.67751501007167
S          -5.33419377768114   -5.01237163841308   11.18056833541324
C          -5.32609441684938   -6.69613199664453   10.78138871090027
C          -4.34816828860212   -3.14428685917558    9.36013253004584
C          -5.48020124315774   -2.56846557082664    8.50369103048977
C          -5.90546814229072   -7.68342846187847   11.72809185473108
C          -7.37305650217608   -7.95952672670388   11.38735870002254
O          -5.05633824114274   -9.23531895729884    9.42278229865409
O          -3.43579498133269   -4.61485570796007    7.03144996016198
H           2.75830182330087   -2.41928950542716   -4.44266565808129
H           2.90754709222126    2.44780972373206   -3.37910408391709
H           0.70654491592750    0.02190350950509    0.97950370614103
H           1.70495372399335  -19.32658025995882    5.59094567293409
H          -0.82693611829313  -23.28216673954764    7.26232590055507
H          -4.04641889172595  -18.84529915921949    8.12913935628589
H          -5.25935052128279  -16.86484515879197    8.54024780095868
H          -5.56521889601779  -10.89815255827262    8.14731948218651
H          -1.20630516231711   -7.77014376330762    3.64855220017059
H           1.23468936897218   -3.73793107862137   -0.04658942748743
H          -0.17011261423109   -7.46712549670933    1.22365731300298
H           0.56487407186633   -6.26058128172292    0.14655895298033
H           1.80852949098874   -7.29187303326102    2.75008718115093
H           2.30238465603889   -7.76378787298579    1.12015335706367
H           2.53625381993655   -6.10062706049690    1.66700562793635
H          -6.49089036735626  -14.71823227607235    9.52984487715676
H          -6.57146323956119  -12.95010672413664    9.38395291683252
H          -7.44465603416855  -14.94610735133047    7.22743531640361
H          -8.53151970017320  -14.02878824150997    8.27549840002844
H          -7.53037376553657  -13.18756819580074    7.08734624374143
H          -4.26193739749942   -2.57449651950483   10.28726945523538
H          -3.41505050809947   -3.06641325448324    8.79856191602846
H          -6.43643576014543   -2.66998804971776    9.01271691919341
H          -5.29548468003064   -1.51565997412643    8.31081377427416
H          -5.52564716350465   -3.09130744534683    7.55233043442978
H          -5.34551251704897   -8.61722866332259   11.65159954446779
H          -5.83204888553559   -7.29900919929257   12.74714812083552
H          -7.44581372601886   -8.38882086628779   10.39166343186308
H          -7.79262513808770   -8.66280452008853   12.10129643452655
H          -7.95302604653847   -7.03966712465432   11.41919821465099
