100
 SCF done       -198.734887180358          0.000862188662
C           0.19106366637574    1.00111100555291    0.35944640334022
C           0.34415939137784    1.96117832559069   -0.65190662347003
S          -0.96999749823923    1.95129318742917   -1.80833111272486
C          -1.64172179285653    0.57672540965183   -1.00107522263964
C          -0.94382401263966    0.21214252971495    0.15925283678208
N          -1.43791228714990   -0.96497238507234    0.64939136641556
C          -0.73793385738994   -1.67515757163918    1.69248409905111
C          -2.41418291175494   -1.40622967347337   -0.21765250954859
C          -2.56211410510020   -0.44875998524127   -1.26249648436377
C          -3.32434387812438   -0.73849814433958   -2.41812206931726
N          -3.58503535640112    0.04203507656921   -3.45379345187492
S          -4.35663876924719   -0.83143609523773   -4.57649506148226
N          -4.38038901194194   -2.24412682233050   -3.78897340691457
C          -3.79520923999667   -2.08188656509646   -2.61349245303353
C          -3.60588901802555   -3.03052965476654   -1.58324588192548
C          -3.06448692136253   -2.65846729222505   -0.32816697483562
N          -3.08121196182661   -3.75556139316971    0.52941656537961
C          -3.35054701057070   -3.63971836555651    1.95427044520717
C          -2.49811777565970   -4.54727770212426    2.83443266527833
C          -3.50648705483459   -4.83721669027883   -0.21586295445882
C          -3.82752784648046   -4.41543257470210   -1.51606588518031
S          -4.17989401938691   -5.69403560870410   -2.61805019538327
C          -3.83521170809351   -6.83214010350809   -1.34711565886035
C          -3.54066743576181   -6.23261426267941   -0.11075721050907
C          -1.01918173112494   -1.08591737380305    3.07240779702473
C          -2.51183905925977  -11.88100782324710   -1.59485238699318
C          -2.30089465212159  -12.52541286526587   -2.79207122186129
C          -1.62098278476495  -13.79410518885237   -2.94909276421814
C          -1.18573256940493  -14.64045354781192   -1.96116367091225
C          -0.52085743406431  -15.86152673344685   -2.20222374511363
N           0.02508762127778  -16.86337811832762   -2.32755430799710
C          -1.33316847812234  -14.43178742899086   -0.57422078567547
N          -1.41016098640786  -14.33404576071556    0.56825099440995
C          -1.45482336927190  -14.02423341823173   -4.38597729820963
C          -0.82134883258407  -15.03914729478941   -5.08541398506176
C          -0.80750748933525  -14.96524528871241   -6.47083453149111
F          -0.19348391679481  -15.93118024793112   -7.16337799600914
C          -1.41064443523011  -13.91047659870278   -7.15589670056824
C          -2.04826123397836  -12.89284347166354   -6.46425454799062
C          -2.05752290375401  -12.96563357485478   -5.08598950069579
C          -2.63390023121319  -12.00696696362762   -4.11963341361247
O          -3.25896137945973  -10.99938991639103   -4.39389938822487
S          -3.15423603679545   -7.41091255714745    1.11627187285911
C          -3.25882135872740   -8.68649005236268   -0.07114653817555
C          -3.64549094278155   -8.21614958092084   -1.33629123049680
C          -2.91360921995015  -10.02710500930619   -0.03429696883881
C          -2.98974475712836  -10.59739621179206   -1.32086592357775
S          -3.57907144476989   -9.44918842840801   -2.53052057687789
F          -1.36875322503213  -13.87850407639222   -8.49328131370759
C           4.53073557997987    1.78328986574622   -1.72954675625162
O           3.48692904934972    1.50233289586407   -2.27794510672668
C           5.88984230953794    1.55100917390012   -2.26947352894854
C           6.23687152250253    1.00240846061415   -3.48798938560002
C           7.58655713818332    0.85537773714515   -3.76496875792599
C           8.55024157144345    1.24811057656644   -2.83550492101969
F           9.84535802614361    1.08355874273284   -3.12580226329397
C           8.20103975167708    1.79915326839967   -1.61110758027374
C           6.85274212719990    1.95062312988332   -1.32813758881379
C           6.16441840812333    2.46770616368304   -0.14694997686841
C           6.75410779910300    3.05902038698157    0.93833566570462
C           6.03491598655086    3.62509883073879    2.01271734246597
N           5.50278586742046    4.11871416185579    2.90203569622744
C           8.14802126846604    3.20169826306057    1.09774017774843
N           9.27413216807086    3.33154609755972    1.27724027353977
C           4.74289952019049    2.30152085197811   -0.36041547657117
C           3.77708669360267    2.28757505996750    0.61266864421628
F           7.96929635559798    0.32610118143677   -4.93299866730454
C           1.58908769641199    2.60194221215767   -0.65357752245554
C           2.39791390608039    2.12208776823909    0.36955043148254
S           1.54864953779777    0.97983399685440    1.41960285567040
C           1.94294790573652    3.72125017644444   -1.57214418455680
C           0.96204515437547    4.88483686074580   -1.42577629545961
C          -2.52286510624487  -10.73599044788191    1.22107586735530
C          -3.68770561447374  -11.57038231275925    1.76090412820559
H          -1.00974618701167   -2.72588566258540    1.63986250138249
H           0.33561729424259   -1.59302555408530    1.48902227185975
H          -3.20714645091031   -2.59395638266173    2.22527752570859
H          -4.40768948290092   -3.87995053218242    2.12509574106574
H          -2.81312214044453   -5.58145239904803    2.74254190919948
H          -1.44423476774415   -4.49335698743186    2.57549196934304
H          -2.61550610645169   -4.24733210777119    3.87218896361718
H          -2.08325301304041   -1.08560619022290    3.29671964023072
H          -0.50321298698185   -1.66702778488077    3.83089886171969
H          -0.66020509527254   -0.06107738934618    3.12063117052853
H          -2.18909278599360  -12.41498448139493   -0.71166080655568
H          -0.33770220621062  -15.87426194968902   -4.60619474710283
H          -2.51331530210305  -12.07329334285295   -6.98842504866250
H           5.48838966928152    0.69513966086344   -4.20083132654463
H           8.98198954111638    2.07889365256060   -0.92309225865883
H           4.08717338132738    2.25709613690684    1.65102498150117
H           2.95573994461904    4.06499330695863   -1.35919535791629
H           1.91804827212182    3.34688113219440   -2.59838515915784
H           0.96653908925988    5.25858436005714   -0.40406631395174
H           1.25169721067425    5.69420829055851   -2.09044190071969
H          -0.04803273204668    4.57491818077852   -1.68007207357765
H          -2.24232185911496   -9.98664672713904    1.96479645298310
H          -1.66222070638447  -11.38556992481274    1.05370977571085
H          -3.39023352591626  -12.06392374448241    2.68151141179746
H          -4.54703255002137  -10.93568123164203    1.96512305097213
H          -3.98109986396940  -12.33143254179924    1.04245260699309
