109
 SCF done       -193.521828398206          0.000990932453
C           1.24055894032887   -2.88168747496983   -2.20954035781934
O           1.77346046659268   -3.40584598598797   -1.25456739363148
C          -0.07103258141767   -3.18066090581857   -2.81562148568947
C          -1.04979886143607   -4.10228547327320   -2.39719621734268
C          -2.24777353083895   -4.17647218820393   -3.16607167944841
C          -2.40960047712376   -3.33914523603804   -4.29167623973549
C          -1.43923565896179   -2.45608542280312   -4.68760685186768
C          -0.25586264689493   -2.37902826382010   -3.94254025999181
C           0.94765080701058   -1.58337611796321   -4.16499526542434
C           1.33456633014103   -1.04018415328729   -5.36322190970483
C           2.64876539261587   -0.59576781961011   -5.61918460633092
N           3.71997319510087   -0.28167860160859   -5.88833219363271
C           0.50761410221958   -0.93847479865135   -6.49799137380237
N          -0.12627106312172   -0.78849561626234   -7.44374236404611
C           1.77750595393324   -1.73813426730083   -2.99253924310473
C           2.81382716149704   -1.00677451347165   -2.49902629708243
C           3.22961556720897    0.29664515089032   -2.84503134502097
S           2.12384822375628    1.45432194503412   -3.58618135262919
C           3.37196622150769    2.64047915315791   -3.64787145100226
C           4.56037587369093    2.16014048781733   -3.08270223008790
C           4.48292553633541    0.84740422332984   -2.60818811205091
C           5.64357941210284    0.09880816917823   -2.04595313813284
C           6.27518086929421   -0.79170781079063   -3.11885104094201
S           5.86877369827611    3.31893969020018   -3.14058529758955
C           4.81513300508563    4.43001663873319   -3.94079196874810
C           3.51962614253531    3.93975478793687   -4.13651201420975
N           2.75713437306257    4.86233609704509   -4.80688410738513
C           1.62096116934572    4.36192882792000   -5.55363198774859
C           2.07495344074828    3.56572322572283   -6.77678401169946
C           3.56345625768575    5.96388758755747   -5.05418493593283
C           4.86391834660340    5.69931059087762   -4.53582776895285
C           5.94427255523191    6.58665916973656   -4.73609477121201
N           7.20325727906449    6.45581214892712   -4.34889409259035
S           8.04516756823441    7.72077620956136   -4.90672064847083
N           6.83445212337640    8.48698065614701   -5.66012870545219
C           5.72725224883204    7.77938367203136   -5.50149392782324
C           4.41459077274614    8.08977168282418   -5.92052577483966
C           3.31001252853732    7.23143306916307   -5.63991950069999
N           2.15164016797780    7.87796421179605   -6.02079713861015
C           0.77224797083864    7.61142444607269   -5.68124479023550
C          -0.05248652055010    7.20583762916915   -6.90331012481198
C           2.49889959655028    9.08745633498022   -6.56214020939546
C           3.89126680063480    9.23837730629968   -6.52626587651640
S           4.45097623245009   10.74560852100031   -7.15971892002503
C           2.78396669076870   11.19540528374061   -7.46426188785065
C           1.85376698089079   10.21063438739972   -7.08920516746352
S           0.23293918930679   10.71057639543647   -7.40234356136164
C           0.81488458331264   12.24567647303684   -8.04856474481739
C           2.21569196739123   12.34297046893083   -8.00035602722082
C           3.03440901505244   13.48543925012448   -8.50582607917021
C           3.29299553100740   13.34416171499047  -10.00830229123786
C           0.00294136815101   13.26109760938275   -8.56510271429760
C          -1.35897054583755   13.34594466264204   -8.71053035534304
C          -2.07325175557278   14.46890441669418   -9.28124469450071
C          -1.54209387238692   15.63486938250969   -9.77176933501840
C          -2.29741911743881   16.69298919430888  -10.32004796554296
N          -2.83601412223509   17.59660504542874  -10.78054157366265
C          -0.17174107311863   15.96678687879746   -9.81005129157109
N           0.91977778386014   16.32055302552264   -9.87960732435551
C          -3.49694710737733   14.13909415559681   -9.24215348864124
C          -4.61096603168032   14.87398595275116   -9.66858622893966
C          -5.86013904817356   14.33144268512932   -9.51230707149564
C          -6.05882198290702   13.05899950389965   -8.93529063193902
C          -4.93413458496376   12.30034006924113   -8.49843556689562
C          -3.66169396304802   12.87781705617888   -8.67180529220331
C          -2.34080519636244   12.33014585934763   -8.32005165391272
O          -2.10631463089287   11.24782310442860   -7.80330002913676
C          -3.24401815511004   -5.09469081848159   -2.77547859164438
C          -3.06326681915362   -5.89737616275680   -1.68274773849473
C          -1.88102642116294   -5.81931985234740   -0.92875176584173
C          -0.89216406168006   -4.94025310349250   -1.27441602380533
C          -5.13798396418917   11.03007486636686   -7.92120321741093
C          -6.40413270453341   10.53292420268121   -7.78241772207847
C          -7.51554345483365   11.27631770656892   -8.21184837896988
C          -7.34795564187341   12.51078173010179   -8.77570869176402
H          -3.33138019483499   -3.40822456467699   -4.85138057986442
H          -1.58981042349777   -1.82610643838294   -5.54937381136335
H           3.35126965791078   -1.47161739389958   -1.67733687668199
H           6.38231359960734    0.81882041402665   -1.68886033388009
H           5.32172852803229   -0.51776601882168   -1.20404607505164
H           6.60399444264942   -0.18963740354111   -3.96179533828837
H           7.13255348065491   -1.31910310693562   -2.70934831096003
H           5.55378368158308   -1.52000854746405   -3.48165217885342
H           1.05280334675754    3.71351832636158   -4.87968239672617
H           0.98242912519898    5.17587273642718   -5.87256821474200
H           2.65213299465597    4.19907901198594   -7.44741802953940
H           2.69309055086683    2.72034415366467   -6.48395435505175
H           1.20776717018906    3.18690441415895   -7.31075871209503
H           0.74243110042121    6.85917128860925   -4.89138643667820
H           0.34943606350231    8.53565737809699   -5.27200503574423
H           0.43250999064305    6.41399534617920   -7.47005466854335
H          -1.03516131256487    6.86602035725579   -6.58818601102567
H          -0.18383335658380    8.05995488344817   -7.56174321369656
H           2.54420154293387   14.44016957601090   -8.31110469216895
H           3.99042455039496   13.47813254292586   -7.97851384726255
H           2.35704241570181   13.34902026159465  -10.56184417123395
H           3.90231068801848   14.17319554667613  -10.35613431445670
H           3.81563399453709   12.41334072959095  -10.21564049596671
H           0.56607549733739   14.11683301874209   -8.91103077213379
H          -4.49634391953412   15.84851186212432  -10.11308872328126
H          -6.72797484540454   14.88695427030632   -9.83771748436226
H          -4.15204711122624   -5.15436853972603   -3.35808003531221
H          -3.83063590672672   -6.59976098177015   -1.39235403185441
H          -1.75960686536024   -6.46162518856550   -0.06908342267070
H           0.01951712109425   -4.87003370942456   -0.70244534005298
H          -4.27756785585291   10.46741527914745   -7.59522886783213
H          -6.55924707203516    9.56017173824907   -7.33981468297663
H          -8.50653938683074   10.86381731016741   -8.09244916451780
H          -8.20062513804048   13.08575331971843   -9.10684328703223
