233
 SCF done       -379.739171723699          0.000469237400
C           5.37437825288075   -1.61846895098935    1.45235186223978
C           4.05606901673725   -1.40075109933925    0.98020838618585
C           3.06538761845211   -2.32357613416385    1.20938031565693
C           3.41301159184655   -3.46765490283637    1.92748740182800
C           4.72696447187495   -3.67869575565269    2.41099534067812
C           5.72302957546977   -2.76307370691286    2.16452564044483
C           2.63466399218205   -4.59136164702918    2.32969709613769
C           3.41634790000425   -5.50731141066431    3.03893487823127
C           4.82225877507063   -4.98338275277012    3.18342823194004
C           6.13558722813442   -0.46455610034446    1.09855559625045
C           5.34261377480712    0.47999735898620    0.46769140756985
C           3.94856903904243   -0.05927783566381    0.27273340872549
S           1.01545856576923   -5.09808505253930    2.17112764161966
C           1.37422314449689   -6.57491603456184    3.08416650976766
C           2.71545713698992   -6.61561692528199    3.46827807771317
S           7.75332637467220    0.07037835344371    1.30206902119931
C           7.34701941211356    1.60587583836547    0.55671647762422
C           6.02439750163179    1.65601272964867    0.16411874731847
C           5.88346416177230   -5.85788220491053    2.54416614489504
C           5.07985436296640   -4.79109040458232    4.66944723893518
C           2.86236574183964    0.76207230253878    0.93856689335134
C           3.71758126035240   -0.18089763960083   -1.22401940853055
C           0.29673733338606   -7.44771371050733    3.27304636375267
C           0.18377876843445   -8.64330441410066    3.94596118132688
C           1.20502811274050   -9.35497802322942    4.73575152251368
C           0.51299668444338  -10.52759171449044    5.31872636059846
C          -0.82427165635142  -10.54775401877971    4.89649720562315
C          -1.05304262875519   -9.39962124458983    4.01765037194513
C           1.03667997881411  -11.49041358145185    6.15806695356972
C           0.18900379900767  -12.49877195100421    6.58607567976413
C          -1.14319594616061  -12.52692455206419    6.17470828519127
C          -1.66685941439901  -11.56017778954805    5.32922131408550
O           2.37666496737128   -9.08636230970113    4.90842082312980
C          -2.23722512302633   -9.14318992281052    3.37430328950700
C          -2.50353512633329   -8.08269760928427    2.48193164649674
C          -3.39431569571063   -9.94128581028046    3.50223211343123
N          -4.37244121664210  -10.53960995868492    3.55803945618471
N          -2.82222978516288   -7.26772840119780    1.73718149232051
C           8.33818884700707    2.63710615848046    0.46342804661609
C           7.97667894096860    3.99716929661930    0.27064117151826
C           8.97543071693313    5.03554334494303    0.28120778536444
C          10.35212796027086    4.72252414207259    0.43720103513628
C          10.66180008263451    3.37670830314348    0.56784820798270
C           9.69407896926639    2.37830846390700    0.59893642755333
N           6.75164273902422    4.49095638777759    0.10103124420011
S           6.84388625786828    6.08959595029490   -0.03822711286730
N           8.43657373773808    6.24164675899312    0.11342987253680
C          14.69115026776753    7.73327132891467    0.59633613812964
C          14.33124747505409    9.05821849476230    0.94684079015024
C          15.29110732493512   10.02507873107387    1.12070914016243
C          16.62047365686114    9.64232362013077    0.94634510596753
C          16.97828587477387    8.32441219269944    0.57220995363181
C          16.01644728731920    7.35904209352413    0.38981352815050
C          17.83471255214346   10.36873472151641    1.11189175130192
C          18.93666068767539    9.57528067492100    0.80360388581007
C          18.48429506503586    8.19107222159324    0.41756327371737
C          13.48088780395600    6.98008952289575    0.53061756649857
C          12.38054838520032    7.78538262460868    0.77433382640903
C          12.82337279857334    9.19175601457614    1.08666506594812
S          18.27604926704158   11.93160034862089    1.64504341232984
C          19.98015428843094   11.52199132949651    1.47026376441455
C          20.14285034925512   10.22880099081122    0.97861525899322
S          13.04603741631946    5.33958631642736    0.27481107008081
C          11.35313135465862    5.74678407093309    0.48714898691337
C          11.17316569820881    7.09253905080406    0.73844215171233
C          19.12810946397845    7.21177537664461    1.38246874189490
C          18.76709981409689    7.83223149561411   -1.03029742150927
C          12.33298121570295   10.23068345433732    0.09668722413371
C          12.36409899417350    9.50842778235121    2.49962345513494
C          21.01530163308146   12.43664257205739    1.73175418927468
C          20.99275936994833   13.58368894600898    2.47638190855561
C          22.00404342064079   14.63800548606427    2.23386082307361
C          21.47856173049495   15.83988184811333    2.92634410540972
C          20.31125305081436   15.50015946182051    3.63271820241923
C          20.07672343750782   14.06345815936439    3.48385649562861
C          21.97976897421022   17.12628730739551    2.92353175934011
C          21.28413046607827   18.08972303931554    3.63695461297668
C          20.11950352462712   17.76147589206481    4.33079989347605
C          19.62084335425153   16.46715362165852    4.34404034278616
O          23.01383261404300   14.54928712943283    1.57348591064081
C          19.34726941470581   13.29243114335473    4.35229837987837
C          19.41935293922631   11.88372461823511    4.38225030386783
C          18.52877055287392   13.81469490319530    5.37251252421895
N          17.83026116473388   14.18964877184999    6.20281636344380
N          19.50105252086274   10.74274823036676    4.47882860340264
F           0.65202016028494  -13.45430921834264    7.40297209263097
F          -1.94213038660549  -13.51101322251931    6.60548954544485
F          19.46220900612622   18.71683448772039    4.99931233603225
F          21.73364727451848   19.35128093158690    3.65852036876219
C          18.97437663750686    8.81566066789350   -1.98709566003907
C          19.18630109953327    8.47402890083932   -3.31026816314569
C          19.18593285511212    7.14604088604449   -3.71426600762080
C          18.96772380994377    6.16585937751855   -2.75448006478986
C          18.75614833882581    6.50177694792724   -1.43106913116343
C          20.42828643967363    6.78953212378153    1.14174313976886
C          21.07544674639379    5.92339618951375    2.01018623476348
C          20.40344759670825    5.48903724181021    3.14516817170363
C          19.11692097880323    5.92380108612875    3.40495336714501
C          18.47733826654725    6.78463643946763    2.53023615936940
C          13.20600787731066    9.38296993076072    3.59472886376147
C          12.73720318828190    9.63973475785271    4.87080297206033
C          11.41824351004718   10.01319152867383    5.08703854178598
C          10.57569857740206   10.12329733760715    3.98768583016678
C          11.03892903068907    9.87087132261868    2.71135414940219
C          12.34592573574111   11.57681426498339    0.44091800211798
C          11.93059848935785   12.53573855602553   -0.46269936101542
C          11.49308240400143   12.17865800619873   -1.73182735332397
C          11.49362220223497   10.83365946721580   -2.07448568764019
C          11.91078186623935    9.86984261231805   -1.17465103198790
C           1.53949860237089    0.61610182774673    0.53882880352799
C           0.53515075794070    1.33015238585426    1.16317050723378
C           0.82235826371678    2.20644209421470    2.20208100685885
C           2.14391146247662    2.34018170800392    2.60467628804308
C           3.15293285146831    1.62566632716386    1.98483704470433
C           3.87752511341183   -1.38208759771208   -1.89868774073292
C           3.69418336243926   -1.44424880515915   -3.26862936901351
C           3.36008078079803   -0.31216336086777   -3.99828808544422
C           3.21600290407102    0.89127798200483   -3.31883104005508
C           3.39640220503983    0.95923571315055   -1.95135103818125
C           7.21411377289412   -5.71576330952163    2.91818874380515
C           8.19677987358742   -6.47760381070345    2.31645016157827
C           7.88006142283510   -7.39680113640939    1.32423940061780
C           6.55056046752996   -7.52810842249627    0.94811441758346
C           5.56336441482839   -6.76460026602433    1.54420086196524
C           5.38471056563579   -5.90199042888961    5.44749481721142
C           5.58183347720746   -5.77161462661879    6.80792666644808
C           5.47159308127724   -4.53367940867789    7.42941502077967
C           5.15573334903196   -3.43074868428293    6.64895752595086
C           4.95477438117009   -3.55500657368898    5.28551055107446
C          19.46322078689849    6.77642804077056   -5.14278630704075
C          20.96559071401785    6.59001345320228   -5.36503356163388
C          22.45631345937121    5.42928516836331    1.68714380311308
C          22.38452009307332    4.26026200396116    0.70262009001427
C          10.92809363754439   10.33910020169620    6.46809944738873
C          11.15275550886761   11.82078512133067    6.77712796380464
C          11.07710716914446   13.22674834248846   -2.72337618193875
C          12.28679425293931   13.71777262081608   -3.52116805382232
C           8.94430456313836   -8.26318196099638    0.71538993434839
C           9.14894514536139   -9.52471415384846    1.55683356758746
C           5.73499509654580   -4.38582325189323    8.90016693330358
C           7.21835341408930   -4.10665381742630    9.15124063583102
C           3.11015546253960   -0.39536884032915   -5.47639614022076
C           1.63578091576628   -0.69830387814292   -5.75162229161042
C          -0.27760432858165    2.95021692571273    2.90297127134553
C          -0.85373810211803    2.10431083154919    4.04033452496327
H           2.05483520119199   -2.17812201749909    0.86030584493213
H           6.73199398971209   -2.90711006832091    2.51853190920326
H           3.12322797923803   -7.43353605606598    4.03182762641759
H           5.60032146893387    2.52238559132864   -0.30696952829171
H          -0.61406204165356   -7.09286846705495    2.80561303402746
H           2.06769614548707  -11.46135320026780    6.47248082609369
H          -2.70324361038526  -11.62995235885504    5.04376821367991
H          11.69908499664860    3.09554273015227    0.67747119540160
H          10.01094517275701    1.35510666884962    0.73973935765418
H          15.04073605089295   11.03798075971420    1.39573797411678
H          16.26722465700157    6.34689057862036    0.11279946350709
H          21.11331775547266    9.80019533544727    0.80607844124093
H          10.20101531055378    7.52035145897256    0.89395566587411
H          21.94871482084081   12.24902694111093    1.20878289655514
H          22.88110947569959   17.37920194657097    2.38850222740727
H          18.71658801475810   16.25813203362622    4.89218500790124
H          18.97283765669912    9.85730725580923   -1.70013300462188
H          19.35056399480462    9.25359982973253   -4.04055459462903
H          18.96002216359387    5.12552491264131   -3.04752836092673
H          18.59449353990519    5.72300889707079   -0.69995106369042
H          20.94320758343211    7.13303509432923    0.25507349518390
H          20.89388300412127    4.81364792554536    3.83123001576423
H          18.60531050596381    5.59210588251945    4.29625944502671
H          17.47429674278827    7.12211555843018    2.74371439833801
H          14.23559274488324    9.08687408424582    3.45691920492077
H          13.40957254660587    9.54459964594733    5.71142855898976
H           9.54322609779093   10.40777227721016    4.13352849150435
H          10.37056565277259    9.96491469905681    1.86764754410096
H          12.66657073673236   11.87471694185230    1.42881196723213
H          11.94040184994232   13.57775666914403   -0.17587398325842
H          11.15906258897332   10.53360128829023   -3.05744220220991
H          11.89927399288549    8.82917894147513   -1.46401587475980
H           1.29610193166244   -0.04895439040413   -0.27732723168652
H          -0.48751653597625    1.20889094284903    0.83535902805462
H           2.38962496102913    3.01495204228035    3.41248678934721
H           4.17411662585049    1.74846325526427    2.31511963021013
H           4.14435552801882   -2.27742730144297   -1.35629457261553
H           3.81650874226607   -2.38994212863052   -3.77741235497046
H           2.96198167278859    1.78659101275572   -3.86830498864614
H           3.27739420816047    1.90276459593413   -1.43882246533686
H           7.48033745327148   -5.01487590379335    3.69622876641517
H           9.22643518337904   -6.35687792864093    2.62197360826998
H           6.28186501320074   -8.23588284022563    0.17684386488883
H           4.53633425227834   -6.88248781054760    1.23039063085429
H           5.47358404180762   -6.87248221743118    4.98231601978009
H           5.81922909645062   -6.64533954457126    7.39745399849685
H           5.05911166219634   -2.45904944660921    7.11234161508482
H           4.70048466555691   -2.68091890894588    4.70371393404246
H          18.94478601503764    5.84855696906346   -5.39251867989250
H          19.09659696265667    7.56235579319644   -5.80613534213501
H          21.34820974486295    5.80051719376087   -4.72194698242769
H          21.16708254030814    6.32331339448570   -6.39981251201651
H          21.49917992695483    7.50900626718045   -5.13290873671104
H          23.04390876558167    6.23576921343135    1.24321862221280
H          22.95811690209222    5.10365552126151    2.59999357051559
H          21.89699465152894    4.57143697335403   -0.21896938633386
H          23.38275622423204    3.90079713065828    0.46390650703930
H          21.81344744382697    3.43987042339397    1.13182266864513
H           9.86289392705863   10.11205051786260    6.54664499246331
H          11.46238844560865    9.73389040248876    7.20316098325659
H          10.61893931249347   12.44162200863120    6.06088224489304
H          10.79737019426508   12.05927813222910    7.77677888452420
H          12.21133863802770   12.06308368918270    6.71774671573867
H          10.33654313209273   12.81323954741758   -3.41085308211588
H          10.62434754205202   14.07184027618224   -2.20081019448086
H          12.74623464091076   12.89088746227152   -4.05829313571297
H          11.98637708743713   14.47602867480890   -4.24049842746246
H          13.03106241979041   14.14674327507742   -2.85395409154769
H           8.65585236674029   -8.54899368654494   -0.29806834818334
H           9.88487672357183   -7.71109246668192    0.66069635173502
H           8.22468108319847  -10.09526793218886    1.61319825025579
H           9.92009244006963  -10.15404073346342    1.11880800899423
H           9.44888233811352   -9.26008286508971    2.56833565877595
H           5.14097907845972   -3.56258963374379    9.30222120697036
H           5.44811152983919   -5.30124609886467    9.42125827104482
H           7.52103345301740   -3.19063797678324    8.64858186509868
H           7.41075773733347   -3.99865566350073   10.21609114651465
H           7.82660560971858   -4.92345553075041    8.76908917862324
H           3.37708376806905    0.55089760367929   -5.95139629103142
H           3.72700118271382   -1.18340969910109   -5.91298971156648
H           1.00465184382357    0.08169470888653   -5.33120686697096
H           1.45162133980188   -0.75562635966422   -6.82183464262221
H           1.35395131983048   -1.64644330591040   -5.29916269513048
H           0.10880505188850    3.88653578704917    3.31050266140820
H          -1.07331984987463    3.18825343238663    2.19412119582490
H          -0.07835661732844    1.86725000714941    4.76551240778497
H          -1.65200321856591    2.64111070377540    4.54746920155290
H          -1.25460300606890    1.17075719266357    3.65201183321324
