107
 SCF done       -201.203022767949          0.000912076323
S           3.22311029854883   -0.15391366920347    2.64488217392592
N           2.56734765363305   -1.24840009051644    1.66666969174451
C           1.38618731208976   -0.80501266085702    1.24378691074474
C           1.07601685037850    0.48641356678280    1.78390592575088
N           2.04280018620334    0.93573804837368    2.58016262206772
C           0.49354012566187   -1.47102705710373    0.36477426780603
C          -0.68723063259643   -0.79135280844010    0.07854833698237
C          -0.98900953111288    0.45923468016130    0.60408740988123
C          -0.13752259262057    1.14788490889920    1.46353754356777
C          -0.42901252042986    2.43712750356763    2.00580481527902
C           0.82654464576733   -2.74982933540272   -0.17844370514821
C           0.07795414037237   -3.51979590706362   -1.06128643239995
C           0.71461215153244   -4.70074698111123   -1.40665754431439
C           1.94963163044952   -4.84534217294240   -0.76241309881705
S           2.33906360566349   -3.51137939390580    0.24666437277211
C           0.42027449542166   -5.89268442708543   -2.28526151064858
C           1.63647511305812   -6.74466917371011   -2.00390320260782
C           2.51181308710889   -6.08590960660925   -1.12187868554602
C           2.10567430691486   -7.96916133224439   -2.42230429520454
C           3.34898141972137   -8.28399552986484   -1.86749635235608
S           3.91581726806737   -6.99411728810229   -0.79198098659706
C          -1.56959814213589    3.20650485986165    1.80741363308072
C          -1.51512241607101    4.41434645113547    2.48236893614104
C          -0.32826742557979    4.57112278079653    3.20554543482626
S           0.72731342528793    3.22449259216560    3.05185777876793
C          -2.42588514685617    5.60628739870885    2.66275829354916
C          -1.56733276495393    6.47089545555166    3.55431872954718
C          -0.35441785662023    5.82145832267319    3.85363596810484
C          -1.66414163851419    7.71855027445536    4.12921238035517
C          -0.54388508336038    8.04555576031673    4.89784934658640
S           0.66521064336524    6.75336638228054    4.85194118619752
C           4.19227825421756   -9.39368220218323   -1.99137617299080
C           4.12541274564799  -10.51311681944577   -2.79010050699011
C           5.11312947431319  -11.57628751821672   -2.75021690090212
C           4.83859143248674  -12.48315798636956   -3.86539092904295
C           3.67997122824286  -12.04328829256404   -4.52265035092254
C           3.16641902314205  -10.81876676732516   -3.86760730833147
C           5.50204132621373  -13.61202640872707   -4.32063882054925
C           4.98243643155947  -14.27182788180593   -5.42464097852529
C           3.82640351263492  -13.82923532164503   -6.06745040796623
C           3.15886920425352  -12.70143941911225   -5.61878333375982
C           6.10285891854338  -11.76602534027038   -1.82031026472063
O           2.16100083541497  -10.22378549381004   -4.20043839014489
C           7.01796063177451  -12.84027424301207   -1.85103170718819
C           6.35011600594988  -10.96585576474406   -0.68409951783811
N           7.79635098983679  -13.68302164399507   -1.81794837885380
N           6.62010831561096  -10.39088874068075    0.27337267833248
F           5.61163136815380  -15.36030994053357   -5.88307144298338
F           3.35948933087601  -14.49871412945418   -7.12923127349596
C           0.43727840953069   -5.52939096738340   -3.78725345176779
C          -0.88379675767146   -6.60059667791753   -1.88509621420784
C          -0.61986845349089   -4.52346847323856   -4.22149478765414
C          -0.87199711915596   -7.08134049379777   -0.43865253087404
C          -3.70778391935492    5.13162841390071    3.38310344125121
C          -2.74376567281449    6.29857384288110    1.32759751028133
C          -0.21256810057515    9.18447257235040    5.63975486534216
C          -0.97124609835208   10.26973447584724    6.01715961516642
C          -0.43116772974139   11.40835229360602    6.73458585141377
C          -1.55695220231948   12.21288644218629    7.20870139688992
C          -2.74532995476146   11.64179981782836    6.72845737687456
C          -2.43472292490009   10.43008719173257    5.93534291257956
C          -1.60711063550955   13.35516175156818    7.99203091016078
C          -2.85290340547725   13.89662438859581    8.27351299559748
C          -4.02836919709998   13.32378570824997    7.78807763457387
C          -3.98553948219931   12.18179608762530    7.00488598606413
O          -3.25752047504908    9.73119664012988    5.37857995296400
C           0.88994965927245   11.74214923161723    6.88677691760207
C           1.33922952227971   12.88144823194888    7.58759741064975
C           1.98658699882221   11.04217455273164    6.33949228034481
N           2.93396152981221   10.55251340083421    5.91288635239686
N           1.76993016209755   13.78634341933423    8.14715029633383
F          -5.20960559488145   13.88136221192297    8.08388877766217
F          -2.92432985785011   14.99567917777107    9.03351275446058
C          -1.49139675479987    6.63541521570126    0.52649628360977
C          -4.68751810852646    6.23707278221245    3.75332572402318
H          -1.40676150161860   -1.24786956000500   -0.58246379201931
H          -1.92728807605188    0.91144615653442    0.32467805098962
H          -0.89128344594441   -3.22215789126247   -1.41597831875874
H           1.60215902602590   -8.63466879624804   -3.09838044295790
H          -2.39266977542271    2.89009168433601    1.19362995830700
H          -2.48764960867889    8.39760188759754    4.01713264331442
H           5.06405871037613   -9.33232639860161   -1.35063800117277
H           6.39895488781159  -13.99548429696553   -3.86330473217613
H           2.26573483084377  -12.35282676526736   -6.11226559174448
H           1.42510760108354   -5.12684568426363   -4.02493443956022
H           0.31239911070831   -6.45520711296966   -4.35177547937004
H          -1.71596750696120   -5.90943659729173   -2.02284693230021
H          -1.03185136977744   -7.45260052065312   -2.55079688602866
H          -0.48181077851020   -3.57281460769340   -3.71375718672070
H          -0.53217969555515   -4.35016023599810   -5.29151556481617
H          -1.62299060143953   -4.88986966656272   -4.02181235480094
H          -0.72479757723724   -6.24749569896204    0.24442832965707
H          -1.81885105235150   -7.55852221491470   -0.19814243432629
H          -0.07500227612952   -7.80312500161514   -0.27675434902589
H          -4.20602183964527    4.40884749040779    2.73272009825709
H          -3.40577028678560    4.60509755889241    4.29201008690417
H          -3.38701455184490    5.64093222725275    0.73947724686072
H          -3.29124347473357    7.21812576319992    1.53425218531142
H           0.81157039434222    9.18140430367136    5.99474204709388
H          -0.72981546439438   13.83433595940360    8.39407168014503
H          -4.89143536212077   11.73405218598264    6.62853312182041
H          -0.93632900364450    5.73474791974338    0.27397542938336
H          -1.76553993265558    7.13908882995300   -0.39721743312120
H          -0.83732162283431    7.29383602776664    1.09351025158238
H          -5.05553845182979    6.75230035349736    2.87066383278393
H          -5.54091957171779    5.80074141645265    4.26744527214715
H          -4.22892719465081    6.96312241219105    4.41766747937574
