152
 SCF done       -245.978062887458          0.000444689567
C          -1.09263333777484   -0.60929872825227   -0.49904092771287
C          -1.59505885100150    0.40241138813310    0.35808449703946
C          -0.85453676534745    0.78380142722618    1.49959957081168
C           0.29957434778472    0.05735057770124    1.76404547023140
C           0.81640521627685   -0.94941012354478    0.88198572625767
C           0.11736512877934   -1.25163352300256   -0.30249709844523
O           0.50046326432379   -2.21506968157897   -1.19814816405954
C           1.42619187673157   -1.82220509710074   -2.20672199674409
O          -1.41896466368454    1.76472446190319    2.23937694490111
C          -0.65208971765638    2.57915853803498    3.10665162248706
S           1.23290854966182    0.16127619635883    3.25886173791108
C           2.24236254638964   -1.12268415086557    2.72055700255869
C           1.95233594988129   -1.58161678308032    1.44760282472911
C           3.24208864422495   -1.92668963021177    3.31105432583308
C           3.59983954277996   -2.93203584394356    2.40508829631617
C           2.88398325315570   -2.72337728423427    1.08254245544201
C           2.08110814465249   -3.94085786546567    0.66746197090080
C           3.99098606432191   -2.30004870988958    0.13076586521422
C           1.14843977499986   -4.43529381004856    1.57222318363938
C           0.35200824663370   -5.51432360465400    1.24575640813202
C           0.46549698383149   -6.13138435516438    0.00686748265876
C           1.40206378218880   -5.63798263578047   -0.88942467227322
C           2.20142714500982   -4.55657115000093   -0.56776401966261
C           4.94836475607351   -3.22318451268030   -0.27042183704754
C           5.99647786473803   -2.84878931345339   -1.09186706743730
C           6.13231701267199   -1.53726994447628   -1.52623530841484
C           5.18819291261767   -0.61069210503556   -1.09739922879102
C           4.13792606350437   -0.97974157631855   -0.27803397227640
C          -0.44436236421483   -7.26177764868703   -0.37724390514363
C          -1.70385881787526   -6.71702776300869   -1.05425257972897
C           7.25921460341831   -1.06846283050372   -2.40839003382023
C           8.07212680153306   -2.17377137594317   -3.07063021079250
S           4.04767644678574   -2.06794880776645    4.80707007109105
C           4.88313283666234   -3.51810738519924    4.22717605727168
C           4.52300272967269   -3.82128363404442    2.91546489247074
C           5.74179153275707   -4.13617587412605    5.14923504117701
C           6.51056818548744   -5.27089516036861    5.07166250728509
C           6.66961446013918   -6.20900172268470    3.93865009434531
C           7.54833402620261   -7.28752700386590    4.43065239168070
C           7.92816965017064   -7.02480769900241    5.75618537942476
C           7.31601983569972   -5.76473848849221    6.17699093987400
O           6.20546801240186   -6.14408091301026    2.81695521196321
C           7.50659865244499   -5.18282247223604    7.40413421360508
C           6.96205889498880   -3.96322240710574    7.85988694040153
C           8.31318323703256   -5.73128219499387    8.42447276062339
N           6.57847873225624   -2.98617816864115    8.32822755705805
N           8.94866247679916   -6.10778557124279    9.30362848885854
C           7.97675509919276   -8.41517545396603    3.75823864925013
C           8.80362951430300   -9.30378204857718    4.43004475651787
C           9.18265486019880   -9.05414713671556    5.74104633054220
C           8.75450905891905   -7.91976549578856    6.41844829955524
S          -2.17444064828962   -0.99384316745531   -1.81878181725419
C          -3.28240366106991    0.19309740773111   -1.22982550150598
C          -2.85699954869577    0.85238617915878   -0.08750152959388
C          -4.54313718565905    0.68999538652692   -1.63106005127413
C          -4.92214655960386    1.70441698084528   -0.73665807118057
C          -3.86886649346280    1.89455779014631    0.34020605159885
C          -4.50723408462451    1.62510920610881    1.68734849727591
C          -3.22155627885775    3.26732153338475    0.21898906363908
C          -4.21326097208347    0.48991575388178    2.42727823264525
C          -4.83220581662000    0.26443554331962    3.64393613464729
C          -5.76992444794436    1.15421274584483    4.14751582079221
C          -6.07945338531308    2.27860057199028    3.39268201271596
C          -5.46242051111535    2.50896069514017    2.17875143650542
C          -2.76372361383162    3.67412567973540   -1.02975072678516
C          -2.14459890277985    4.89809813378602   -1.19115739060694
C          -1.95900736206451    5.75046885109031   -0.10988033535344
C          -2.41497449869938    5.33885144093294    1.13464774830712
C          -3.03540791050287    4.11298032270814    1.30111440027392
C          -6.39817076995619    0.93472565150830    5.49326272304452
C          -5.56110477747429    1.60226154577902    6.58664099792130
C          -1.32461340979320    7.09906953657848   -0.29151119695870
C          -2.38836329724626    8.14891503917663   -0.61882163339990
S          -5.68423375551842    0.40110426710390   -2.86940703288912
C          -6.71653692050304    1.65839410707695   -2.19856784564897
C          -6.14080538253856    2.24903101084756   -1.06081837645926
C          -7.96902490600926    2.05794458656773   -2.67579405200840
C          -8.71111655291673    1.59808514233380   -3.73703282436442
C          -8.31203484582813    0.53204929291995   -4.66085226217721
C          -9.43324256896743    0.36692208453146   -5.60407682915482
C         -10.45107132977099    1.28076220421232   -5.27969990022078
C         -10.02367292981043    2.07176318143135   -4.12398030135008
O          -7.26860573270920   -0.09838335228535   -4.66256548278398
C         -10.75663243835262    3.07476079241713   -3.54195652281635
C         -10.36052743347188    3.85408535357378   -2.43562479863898
C         -12.03458942320381    3.48025363604737   -3.98023083727872
N         -10.11948846174888    4.53639195872847   -1.54275293337180
N         -13.07465732272932    3.86445717025902   -4.27881383834040
C          -9.55511812845860   -0.51585035049343   -6.65827021848266
C         -10.72491616431980   -0.48623444631088   -7.40502206395185
C         -11.73600721278403    0.40941820127147   -7.09067411096582
C         -11.61491631287825    1.30039361405941   -6.03129455892464
C           0.40064749679920    3.39513702426028    2.36751238062171
C           0.94570785099669   -0.67848061745952   -3.09110001152404
H           2.38558685189154   -1.55311597447157   -1.74957427451417
H           1.55662511380564   -2.72814473854583   -2.80148974028089
H          -1.39492949086231    3.24379537709550    3.55379198007617
H          -0.19676212371526    1.98999842160890    3.90986979629263
H           1.04238284161012   -3.96581160682522    2.54083351715128
H          -0.37003065395624   -5.88083895267732    1.96171164924065
H           1.50685957270002   -6.10332799421143   -1.85935582023933
H           2.91223100054371   -4.19188935933594   -1.29263564905666
H           4.88106990825118   -4.24662220908650    0.06479456595689
H           6.71532355957548   -3.59770081497607   -1.38279589823377
H           5.27839599403544    0.42106386475808   -1.40750645218055
H           3.43234218734488   -0.22718064616104    0.04488252948308
H           0.07087418364056   -7.93631313634292   -1.06415380565014
H          -0.72852528826195   -7.82967300574196    0.51105409404250
H          -1.43905241297852   -6.15032268566029   -1.94390992758401
H          -2.36522466455389   -7.53110124020578   -1.34203316545728
H          -2.23960840142346   -6.05474463075261   -0.37806369664170
H           6.83902725010852   -0.42061780579418   -3.18320567161350
H           7.92845275448560   -0.44666008757055   -1.80448720307124
H           7.42691829837693   -2.83482136396718   -3.64504703704292
H           8.80285009513946   -1.73642372350784   -3.74737645044435
H           8.60978343716230   -2.76186831704655   -2.33092586554409
H           4.92729711915085   -4.67350851030037    2.40264547284730
H           5.77853150059989   -3.61270341421357    6.09726621916727
H           7.66591791045163   -8.58677819486311    2.73904939335320
H           9.15424811649095  -10.19532532348607    3.93217290897187
H           9.82555157400669   -9.75581171832135    6.25111099863575
H           9.06656749952549   -7.75687729302791    7.43654680682056
H          -3.49694409951315   -0.22856422530955    2.06028066452145
H          -4.58326278051486   -0.62312850838441    4.20832560840879
H          -6.81515860472177    2.98097135197961    3.75800066708153
H          -5.71839384110094    3.39154381144180    1.61167062396377
H          -2.89278420453205    3.02664997268405   -1.88553832387081
H          -1.79703933356273    5.19493655810363   -2.17055069528637
H          -2.27869990381674    5.98467045224782    1.99097741682020
H          -3.36984829671811    3.81541504389092    2.28202689604844
H          -7.40597027880284    1.35449088664438    5.50496580872984
H          -6.47059755076065   -0.13511848605094    5.69870641942014
H          -5.48966219105969    2.67288976418595    6.40774567907028
H          -6.01269320901984    1.44281576381849    7.56292529919016
H          -4.55472542266690    1.18936857984861    6.59717400616537
H          -0.80201803864499    7.38947795044623    0.62240581061558
H          -0.59637901695795    7.05962635665615   -1.10428540106978
H          -3.11714994092608    8.21235782699894    0.18600810387782
H          -1.93047895137530    9.12630501030081   -0.75127886568073
H          -2.91270601395193    7.88342577831427   -1.53398479564437
H          -6.63838053518698    3.04044228236812   -0.53011538432690
H          -8.40862694252707    2.85390197650864   -2.08685220822898
H          -8.75504801490047   -1.20447985669091   -6.88262943292534
H         -10.85048142079652   -1.16493298011285   -8.23520943243239
H         -12.64071767521791    0.41792718519344   -7.67994060690328
H         -12.41888250027295    1.98349415782293   -5.81210118676281
H          -0.07075404916690    3.97163283338856    1.57453709434453
H           0.88614887303742    4.07386386580619    3.06232934742500
H           1.15672616264070    2.74898072170397    1.92826814516991
H           0.01639254806686   -0.94152015425813   -3.58927535217562
H           0.78626354656804    0.22375416062388   -2.50313384572599
H           1.70349236340668   -0.47294559004951   -3.84248872503743
