152
 SCF done       -252.384828002279          0.001346440038
C           2.45495632569511   -2.83864712372337    0.02990725176213
C           2.61075930941164   -2.15208731816311    1.25872111602373
C           1.67491977692696   -1.22036809772738    1.70246977515033
C           0.54792954197421   -1.04934384969956    0.93410205436418
C           0.33544387213213   -1.82815831105967   -0.22909389440955
C           1.30639127736188   -2.70208270931545   -0.71310675152322
C           3.64646525106058   -3.74356469821242   -0.23878246473411
C           4.38825710432031   -3.63050703922742    1.06894657184896
C           3.79188192344738   -2.66838945941383    1.87275649550921
C           5.48465200392477   -4.24060446166060    1.66323377413925
C           5.71157101423821   -3.77371237021139    2.94776521904253
S           4.56902888708524   -2.51207698934128    3.39141956224630
C          -0.64195516660883   -0.14120782114458    1.20155644154881
C          -1.61241337666833   -0.63479833903413    0.15749282214606
C          -0.99751548874483   -1.56477178527079   -0.67077609281279
C          -2.94379257520231   -0.41630570181372   -0.16652091846381
C          -3.36353637135990   -1.21589958910632   -1.22103518034041
S          -2.06694327158997   -2.21176450392320   -1.84470194267947
C           6.64868783346843   -4.26886355389447    3.90111243840706
C          -4.69070305194328   -1.35981313406384   -1.72873161488110
C          -1.10709846227845   -0.32579924900555    2.63043647888550
C          -0.35316392354016    1.31782314513980    0.88699724933749
C           3.16618232835977   -5.13896794765268   -0.57425999539637
C           4.57523579104230   -3.19617843061273   -1.31189660634627
C           6.64430339733059   -3.85858176555635    5.23258545251766
C           7.45391910427595   -4.41536109092233    6.21199974637640
C           8.36499638051109   -5.43424464632612    5.94080467630889
C           8.45805302978404   -5.83147299449811    4.57436346097003
C           7.60556574445326   -5.26773340703695    3.56343750568332
C          -5.75619770846641   -0.55891437603173   -1.32636485574111
C          -7.05969562887012   -0.77731958153416   -1.75361851944669
C          -7.41308577867637   -1.79244855432182   -2.63636482480212
C          -6.36389860718749   -2.64827931021126   -3.05562847595394
C          -5.01443922854236   -2.41619854232504   -2.62163458735877
N           9.28341781354140   -6.74776142041819    4.07551876346372
S           9.02268993672298   -6.88392222210241    2.49457687988878
N           7.84565448350872   -5.79623408558834    2.36505956939578
N          -6.46252592038955   -3.75278520701474   -3.79245997385890
S          -5.00248793471723   -4.39390940719554   -3.97182153460340
N          -4.17444243213234   -3.33358837924608   -3.09312474258812
C           9.18954978532400   -6.13727878902874    6.86499152173307
C           9.26422958111347   -6.15541361543564    8.22393589730411
C          -8.78131600260988   -2.00681680443029   -3.00752048246302
C          -9.22970550173307   -2.53492394107565   -4.16920753623738
C          -8.50221880271131   -2.71501198592043   -5.42633010099209
N          -9.29371445068742   -3.39859397617448   -6.34567022652007
C         -10.56818313926803   -3.66801745295139   -5.96489299085053
S         -10.90216361635231   -3.03571634889263   -4.36739698603414
C           8.53298559242026   -5.44614851123382    9.26742986683552
N           8.91021040987489   -5.89970773310537   10.52785497621749
C           9.87152522749624   -6.85779145917892   10.57127161835609
S          10.40856037930737   -7.27739400544846    8.96540900884536
C           8.30141911371503   -5.29062224422669   11.69647786236315
O           7.69220758009589   -4.58101882448184    9.13682650524049
C          10.40457443032957   -7.48744230169199   11.66906617211573
C          11.39317017486483   -8.47657380534430   11.48403494583297
C          10.06792261934428   -7.26616352520991   13.01472315752812
C           2.86726371884879   -5.47297384669614   -1.88938003756219
C           2.38614517899560   -6.72993560451151   -2.20203755493679
C           2.18476373672625   -7.68313860454352   -1.21235872228269
C           2.47536844267606   -7.34087332240493    0.10137283534938
C           2.95410336091940   -6.08347686807459    0.41998127122262
C           5.63318455445718   -3.98517290147490   -1.74842571954420
C           6.53026758118809   -3.50296404979405   -2.68081511107387
C           6.40215370241155   -2.21882560336611   -3.19604244710976
C           5.34614789124160   -1.43465802276765   -2.75412240407644
C           4.44441020337417   -1.91238437427958   -1.81961219208390
C          -0.53724934177260    0.42803942704901    3.64947339621565
C          -0.91856266702021    0.23446772809571    4.96321229869469
C          -1.87314722344659   -0.71798744924235    5.29640059850074
C          -2.43284851294871   -1.47448218802993    4.27596220795577
C          -2.05122289296145   -1.28788705305909    2.95986235921938
C           0.78144725571867    1.71211218921337    0.19365514600262
C           0.98691421399929    3.04563315776239   -0.11256334146597
C           0.06662839713548    4.01555672777828    0.25870964737218
C          -1.07474038674937    3.61350447444805    0.94153864706925
C          -1.28433220296944    2.28382843691500    1.25004370208290
O          -7.40409510298280   -2.29370876340128   -5.70600809169334
C          -8.74650126675627   -3.68403462930323   -7.65907391975661
C         -11.54523939964350   -4.34082409098086   -6.65421204898077
C         -12.81656402933535   -4.50853980677034   -6.06547272292329
C         -11.42754513678912   -4.92132668094598   -7.92843576246830
N          12.19785321370103   -9.28274597959636   11.34705245709500
N           9.84486264236613   -7.13609108782597   14.13411651979114
N         -11.40153231654725   -5.41985744046851   -8.96301463351604
N         -13.85468724606835   -4.64984581943711   -5.59920769774891
C          -2.32222903999226   -0.88795492360095    6.71894031735883
C           0.27264312003972    5.45557956892272   -0.11324094089429
C           7.35424929443282   -1.71058742554680   -4.23990226474315
C           1.71387847213559   -9.06568661465974   -1.56061330022817
C           2.90842214569625   -9.98753627298219   -1.81321864191714
C           6.84253865652135   -2.04968062597013   -5.64141203364306
C          -3.47159814503357    0.07159693813869    7.03423113872515
C          -0.35889578535726    5.75170560779028   -1.47509782689096
C          -9.19013909801331   -2.65259092863914   -8.68957815316006
C           9.18720256804115   -4.19938400127642   12.28526171577339
H           1.82457989458114   -0.68112993113337    2.62518121244675
H           1.14266189943075   -3.26382066900870   -1.61966629246044
H           6.08841035123926   -5.01325306132561    1.22579238151687
H          -3.59460065457138    0.25653590045870    0.36060282255185
H           5.94728917542473   -3.08591654025930    5.52355910545710
H           7.35648906445480   -4.05985595133285    7.22379295639800
H          -5.56954047304033    0.26129052917800   -0.65149786887074
H          -7.83570412479989   -0.11359432564888   -1.40040465057224
H           9.86220635126845   -6.82856379870814    6.36673096598721
H          -9.52068052885408   -1.74730638209242   -2.25855156550996
H           7.36039502152388   -4.85490219192664   11.34951249200587
H           8.09036188077811   -6.06416237080039   12.43624090899435
H           3.02319181717911   -4.74746348389258   -2.67498671463391
H           2.16214139886828   -6.97387917843705   -3.23086067449032
H           2.32097791012869   -8.06619804889399    0.88766201375568
H           3.16538505041241   -5.83760417345658    1.45061946769692
H           5.74777070769275   -4.98593524680099   -1.35848104220317
H           7.34651356376757   -4.13020930485897   -3.00974344400962
H           5.22798944597093   -0.43244624726684   -3.14121851167433
H           3.63503117789846   -1.27855312876435   -1.48818386964629
H           0.20206235545968    1.17935591516016    3.41096145530494
H          -0.46639152759226    0.83119717675342    5.74267475332932
H          -3.17393537192144   -2.22463820377183    4.51330218781104
H          -2.49304601107933   -1.89639461471636    2.18408339612777
H           1.51410339216209    0.97763701314390   -0.10677170781341
H           1.88039563088643    3.33575181867583   -0.64707201499091
H          -1.80638560598461    4.35196191706967    1.23742832629669
H          -2.17286774456224    1.99061347949029    1.79036690840913
H          -7.66025376791799   -3.64482278145446   -7.54172359452779
H          -9.04250611967962   -4.68997815121590   -7.96108154311997
H          -2.65523911860005   -1.91471652179772    6.88262164444588
H          -1.48988019613146   -0.68616265206108    7.39614117222216
H          -0.18052447884574    6.10171631581607    0.64129640051967
H           1.34075938476905    5.67765073556783   -0.15657091339799
H           7.46068867520201   -0.62777237478357   -4.14826452766403
H           8.33702481747552   -2.16403957173234   -4.09649268242512
H           1.11430025532835   -9.47012320399846   -0.74273812042398
H           1.09117518314176   -9.03024882342497   -2.45655269289119
H           3.53221656982967  -10.04987791298928   -0.92452077071027
H           2.57010969232590  -10.98835652584424   -2.07115915222745
H           3.51519606712615   -9.60438509668802   -2.63047490314569
H           5.86899847945247   -1.59435557095642   -5.80890933188074
H           7.53250049852407   -1.68304791050561   -6.39778636198803
H           6.74064897043408   -3.12648950313446   -5.75647215437054
H          -4.31717765056856   -0.12277491980587    6.37805149500781
H          -3.79676297138767   -0.04900603329919    8.06487206106294
H          -3.15503579840501    1.10196206625907    6.88792412643160
H          -1.42728061253941    5.54913819899742   -1.44897398158663
H          -0.20930396229361    6.79429838335066   -1.74568618905469
H           0.08839717321815    5.12515929971489   -2.24356188852831
H          -8.87029806461308   -1.65843654752698   -8.38563267042490
H          -8.73961513445494   -2.88742883336464   -9.64917061930360
H         -10.27089495075346   -2.65798845169610   -8.81034246961071
H           9.37741594789049   -3.42908237311688   11.54122559925975
H           8.68354034019293   -3.74863260755000   13.13494182294288
H          10.13573757344445   -4.60619517404980   12.62781499737573
