182
 SCF done       -294.322329046208          0.000838464711
C           2.00668581253301   -3.08347203925834    0.15917401129847
C           2.05929305470907   -2.27678352760989    1.32071338189566
C           1.11688169079241   -1.28089502819200    1.56393996531716
C           0.07267813761733   -1.17301527596138    0.67559616655799
C          -0.03305977123295   -2.04864123937003   -0.43141694017630
C           0.95340101950192   -2.98887396001473   -0.71906233848785
C           3.17790344637007   -4.05273514092662    0.12124247870819
C           3.78025933176839   -3.81964119387419    1.48428257587604
C           3.14518922954789   -2.75950715855203    2.11530368841855
C           4.77967660213175   -4.39705669177214    2.25618207225019
C           4.88638118246192   -3.79997699612178    3.50228474506976
S           3.75017971355421   -2.47699625336691    3.69445127871705
C          -1.10237530759645   -0.20784858647013    0.71468483200813
C          -1.94743123964976   -0.74759619656054   -0.41084959052914
C          -1.29722539681073   -1.79366885054736   -1.04870252741553
C          -3.24038667756598   -0.54211547968514   -0.87237220054717
C          -3.59746678427081   -1.45507314946893   -1.85202852925689
S          -2.27212936520924   -2.53794428016145   -2.24812639539486
C           5.69970971260030   -4.18848683452025    4.61066365767789
C          -4.87554128753763   -1.68186340629273   -2.44964679772154
C          -1.93368595365647   -0.25591656043931    1.97979558858398
C          -0.54809951106075    1.18119244374547    0.45236837543306
C           2.66509627887588   -5.45777184514541   -0.10937878317043
C           4.23669674170629   -3.66640505978356   -0.89851057669860
C           6.77261958601556   -5.08736980314517    4.53776690083244
C           7.47254754437269   -5.53042457579331    5.68164241356738
C           7.18079726364448   -5.06989147313326    6.97837875702143
C           6.14640431671904   -4.11266351510286    7.05273227510407
C           5.42377474919204   -3.69119864103981    5.90510956363831
C          -6.06508392829239   -1.05516277776960   -2.05468553370393
C          -7.31654482429867   -1.39277151710147   -2.61536503683895
C          -7.47615816656600   -2.40253679424708   -3.57639759797463
C          -6.29401968529218   -3.07417303634074   -3.95146151005621
C          -5.02922627233862   -2.69183370849717   -3.42728625925536
N           5.62609992795392   -3.46858684358746    8.10053154988367
N           4.67371789515052   -2.72792715327085    7.60355031620427
N           4.49957238748951   -2.81158793237179    6.31639057401643
N          -6.09115860822240   -4.13399182669650   -4.74400180119507
N          -4.80252540077884   -4.32197242445069   -4.70817802452871
N          -4.11289159078518   -3.51394705846594   -3.95457941807716
C           7.86948193916518   -5.60415278805308    8.10108950613453
C           7.70729199376766   -5.36473379569886    9.42564408110387
C          -8.77828912355288   -2.76012695440629   -4.04156669146809
C          -9.10247035545980   -3.34371459811899   -5.22068245891184
C          -4.17347390375962   -5.30481845780188   -5.54102529739701
C           3.85847076456846   -1.88408760586501    8.43148083863020
C          -8.30761506115113   -3.48840409830022   -6.43565836226624
N          -8.99697752069252   -4.25971071498229   -7.37288125006446
C         -10.25897462883406   -4.63164941906251   -7.04149190625871
S         -10.71632324942218   -3.99803522340036   -5.47822919472305
C           8.50784686083471   -6.11140381857031   10.39938344371943
N           8.19029486416490   -5.73637481271010   11.69797360375437
C           7.23250564061823   -4.78465198519986   11.80960041349484
S           6.62669714240127   -4.26287725918698   10.24552776026096
C           8.83915939869421   -6.41013988632402   12.80723986398651
O           9.34317680658181   -6.94944472467525   10.14107045560072
C           6.71950028417120   -4.20867633884439   12.94714444536641
C           5.73247699255228   -3.21359164596794   12.79952172406446
C           7.06792158796710   -4.50043941499248   14.27485000574573
C           2.48791389531152   -5.92984315420188   -1.40412480113740
C           1.97477915798320   -7.19345525867007   -1.62661460284733
C           1.61931871594116   -8.01604583124704   -0.56572896735040
C           1.78972867209477   -7.53629698032215    0.72594932491941
C           2.29977154254673   -6.27154765151937    0.95377464596948
C           5.29389995930118   -4.53852922637997   -1.13142074703418
C           6.30087881509194   -4.20219642368415   -2.01465582542528
C           6.28212384853439   -2.98655345878199   -2.68721947538937
C           5.22938129325372   -2.11579279706839   -2.44350619521225
C           4.21865659883999   -2.44658607831364   -1.55829239214217
C          -1.87470044753290   -1.32835614173494    2.85748277627700
C          -2.69378749912977   -1.36631969494729    3.97185666535346
C          -3.60034782137445   -0.34748209594486    4.22932842380882
C          -3.66719158710985    0.71612131179669    3.33798336761922
C          -2.84859440788906    0.76143519928655    2.22658869902909
C          -0.48332299860126    1.69951162924582   -0.83306779076316
C           0.06962788423734    2.94674437412019   -1.05929492340892
C           0.57993600745072    3.70262578740114   -0.01296641892251
C           0.51783563292121    3.17671745602850    1.27123809110781
C          -0.03465927331148    1.93176239264072    1.50282179462974
O          -7.23526001318569   -2.98657249845557   -6.68595349965849
C          -8.37313731917524   -4.51812014227253   -8.65656407762225
C         -11.14008430864511   -5.40496876238901   -7.75709681559056
C         -12.41811111083791   -5.67186644232388   -7.22350601977946
C         -10.90990068624122   -6.00352669295145   -9.00645014041739
N           4.93099525436383   -2.40171932727945   12.67133317036292
N           7.30495994116287   -4.69919880049152   15.38169122768964
N         -10.78859464777877   -6.52220967938803  -10.02486576901876
N         -13.46239104039431   -5.89516023480232   -6.80391299682338
C          -4.45133246755947   -0.36803133542303    5.46630144117513
C           1.13916063835898    5.07496155354400   -0.25579847555271
C           7.39903943549740   -2.60156953481061   -3.61429642585829
C           1.11115357377725   -9.40808909731981   -0.80810096646165
C           2.27257227964844  -10.40398223694684   -0.82537454678552
C           8.48311292862713   -1.83328533954699   -2.85561381562576
C          -3.91350385325340   -4.70798927838832   -6.92159037381506
C           0.03787656516740    6.13047782604100   -0.13708857574585
C          -3.72592102373817    0.32209748345596    6.62339487610987
C           4.71978401554263   -0.93808784064163    9.25660286829945
C           7.97608447048815   -7.54159045302831   13.35345121536080
C          -8.86505081597820   -3.55124943096438   -9.72723307561621
O           8.51408088319976   -6.41413498788399    5.55033466904818
C           8.19844376852225   -7.70088455846442    5.04249406413156
O           7.15494114225147   -5.57645386831641    3.30132408376030
C           8.36750421399135   -5.02923562394150    2.81119503319227
O          -8.45342697336848   -0.74970961445890   -2.18676109428446
C          -8.53281283480232    0.63740765363362   -2.47221251996456
O          -6.02849519257178   -0.07672764166403   -1.07849764509356
C          -6.55009822032820   -0.47992169773083    0.17764430388704
H           1.19331932252098   -0.65275536006433    2.43790011027322
H           0.86948379753485   -3.63079171971376   -1.58236676350905
H           5.37844208177521   -5.23923678139308    1.96680032433244
H          -3.90455152068174    0.22059062329626   -0.51538125863790
H           8.63402193182067   -6.33820062882389    7.86946012627038
H          -9.58473775088222   -2.55838668395340   -3.34673405244682
H          -3.23989067426611   -5.60047431230033   -5.05945462061960
H          -4.85097442082525   -6.15772342203767   -5.61457566732765
H           3.19031034297549   -1.34453124919700    7.75806984239668
H           3.27104378928398   -2.51936595299834    9.10113934176940
H           9.77154165600880   -6.81641311549170   12.40561410758940
H           9.06570763170227   -5.68195468555682   13.58793822357317
H           2.76373504355450   -5.30738298517948   -2.24342262159180
H           1.84607484702459   -7.54538922722021   -2.64051212803886
H           1.51518321836786   -8.15880655070296    1.56592329344177
H           2.41671869775100   -5.91663283833574    1.96740706919729
H           5.32005105673731   -5.49122682418163   -0.62270113559094
H           7.11329846498299   -4.89411067253804   -2.18706797029588
H           5.19581071420386   -1.16404070654792   -2.95473786836398
H           3.41186063120321   -1.74940964496028   -1.38589304459339
H          -1.18649991048881   -2.14010711068270    2.67237859828024
H          -2.63012608586180   -2.20636034609605    4.64907287282829
H          -4.37001024022093    1.51776659334535    3.51697634201273
H          -2.91141072344085    1.59805779598071    1.54561858193850
H          -0.86927433386598    1.12801156725449   -1.66443392513079
H           0.10812853960427    3.33637072757554   -2.06678602591588
H           0.91037476168731    3.74822850280665    2.10045201265506
H          -0.07849841946043    1.54370807804187    2.51014834977946
H          -7.30080090128763   -4.37674953588816   -8.49813142955693
H          -8.56285998393882   -5.55239126142444   -8.94816510021688
H          -5.39542304420655    0.14645777142140    5.27576929860934
H          -4.67448623611398   -1.39961845980813    5.74596104580834
H           1.92308570444229    5.28969326711395    0.47334041526712
H           1.57818264761489    5.12446931734688   -1.25433316260852
H           7.83732653554289   -3.49715618456714   -4.05917912846338
H           7.01163202215417   -1.97429079541532   -4.41964428995180
H           0.40851489477990   -9.68826786596127   -0.02067589910627
H           0.58705644176811   -9.45002809068029   -1.76506247484502
H           2.80023816801431  -10.38551544822295    0.12568867498858
H           1.90698188987380  -11.41309932155970   -1.00059857208276
H           2.97821276298457  -10.14828852968477   -1.61275049424182
H           8.89185219597625   -2.44655336351919   -2.05551583370576
H           9.29190652555413   -1.55295138529397   -3.52643036116984
H           8.06763702939912   -0.92976146233219   -2.41494382795636
H          -3.18358219907108   -3.90559585764048   -6.85120383578779
H          -3.53665915161876   -5.47142869195139   -7.59593932692345
H          -4.83893830637052   -4.30019007488111   -7.32143234277769
H          -0.40417252169371    6.10560409884274    0.85649666068848
H           0.44217183138507    7.12464881823480   -0.31288862110031
H          -0.74748428898785    5.94081447514168   -0.86541184436076
H          -3.50545828850109    1.35626865741653    6.36816535897571
H          -4.34014365343459    0.30881212273017    7.52066281254598
H          -2.78748827969441   -0.18476177191270    6.83680351675780
H           5.32016684631270   -0.30260358998519    8.61019958512252
H           4.08389473353599   -0.31243256325387    9.87498017000210
H           5.37648004253334   -1.50864445687404    9.90748680442673
H           7.76692009573744   -8.26596184603511   12.56931897061188
H           8.50606610628822   -8.04088590804768   14.15889723501824
H           7.03637733891780   -7.16141338063320   13.74733744171306
H          -8.65282288565344   -2.52633111030049   -9.43134736345937
H          -8.35389618130215   -3.75951076860908  -10.66234315522928
H          -9.93434441362003   -3.66012274131662   -9.89199834994881
H           9.14937216420607   -8.22402358071570    4.96325899729517
H           7.54465286450035   -8.23450664399223    5.74015206159000
H           7.71848314199068   -7.65130459229975    4.06362564471128
H           8.26175642072738   -3.95319589761187    2.63791699929405
H           9.19701396473418   -5.20604177251916    3.50052096671065
H           8.56128622421684   -5.53261549890492    1.86583344356253
H          -7.68881538633255    1.19014017556143   -2.05567423130951
H          -8.57475273310719    0.80022239863479   -3.55417934870287
H          -9.46011839489769    0.97813020428024   -2.01557083756548
H          -5.94572938033174   -1.28611717703030    0.60683385577872
H          -6.49162891307113    0.39669336777900    0.82030070005451
H          -7.58881878590717   -0.80840594186517    0.09536900018185
