114
 SCF done       -216.170045742950          0.000821139744
C           1.63901014128899    2.51735361232198  -10.86868361527752
O           0.69976058881688    2.22240341815999  -10.15128870040471
C           2.08036658451857    1.77582721671991  -12.06944344476244
C           1.53760898736885    0.63200378826321  -12.61886278132543
C           2.13282711393184    0.12457030378728  -13.76280354823584
C           3.23979168167213    0.75745553370660  -14.32714327200513
C           3.78507939025529    1.90675719998937  -13.77291926657043
C           3.19585556764836    2.42060180767327  -12.62879718413190
C           3.51781756304692    3.59509572885140  -11.81404691514176
C           4.55360368890024    4.45996205749924  -12.06061978717591
C           4.88228051059726    5.59710282650695  -11.29360952226737
N           5.22067156931739    6.53753099769388  -10.72687807016611
C           5.45438922271136    4.32790061817353  -13.13864429591374
N           6.21852827820656    4.28145708337346  -13.99383791017238
C           2.55384252227782    3.65055201770710  -10.73628429670974
F           3.79433848695631    0.24707843336893  -15.43293189235805
C           2.50253559697428    4.61436079228967   -9.75297512601563
F           1.63948076391683   -0.98297591716849  -14.33146415522972
C         -13.08487114846468    7.15266948289492    4.82782798926990
O         -12.02186935362448    7.43298589339535    4.30410503444659
C         -13.77100338719613    7.93659251871816    5.87694867005697
C         -13.36603116961069    9.11517620415811    6.46998139928296
C         -14.19155470133788    9.66213579108353    7.43951053630208
C         -15.38507878214498    9.03321483486171    7.79265939851601
C         -15.79079529703446    7.84829953773458    7.19544052255187
C         -14.97104770496294    7.29467123511894    6.22503086899574
C         -15.10612404211489    6.07912051508148    5.41835773842324
C         -16.16594236288650    5.21025963518345    5.48001278725200
C         -16.32192935179820    4.04138929977497    4.70642360330075
N         -16.53130441637382    3.07958794337705    4.11361631518065
C         -17.27308978930298    5.37274189740982    6.33949463173895
N         -18.19758421146937    5.43959332396287    7.01654875712117
C         -13.93952030120045    5.99456881265901    4.56657028261243
F         -16.16332232325578    9.58293549824865    8.73222487632654
C         -13.67337284994751    4.98846267936505    3.66430506316766
F         -13.84004736682118   10.80457076821935    8.04253713514986
C         -12.60309212473613    4.81236727962836    2.78611338727078
S         -11.22201277993877    5.88335626732165    2.57456581540373
C         -10.60751018725025    4.84074662035917    1.37003558100376
C         -11.42092173842576    3.71575911324535    1.11999658088642
C         -12.53057061465391    3.69917559863796    1.92650271087415
C          -9.47077670525323    4.76265420779810    0.54008810199170
C          -9.54279012081931    3.60115001155866   -0.23611832435659
C         -10.81828507152025    2.84134328433020    0.04524594650041
S          -8.05686073529682    5.67836590761808    0.23122301703706
C          -7.55321474483691    4.50280196069760   -0.96326596564386
C          -8.46079396952877    3.45719697271695   -1.08706176092447
C          -6.35120447685293    4.65650591969847   -1.71823425623729
C          -5.45939607268404    5.71531487460520   -1.56712121830477
C          -4.29845276161167    5.88841727269891   -2.32988065681614
C          -3.90339602568844    5.01411442320848   -3.33765784460020
C          -4.78416621640315    3.91689053032646   -3.49945696252711
C          -5.96479464918410    3.73385338988099   -2.72499490840829
N          -4.70196521283710    2.89212610193967   -4.35426760616772
N          -5.75250709511269    2.16730459761597   -4.09744832461980
N          -6.54106268037806    2.60146043100407   -3.15424923187113
C          -2.75294648524364    5.16016324220863   -4.17198241320062
S          -2.46546232161434    3.97438050874915   -5.42572730111628
C          -1.06741061239846    4.83718575734381   -5.91956335540302
C          -0.82509717436099    5.97332974862686   -5.13886747504505
C          -1.78731091530726    6.15909807958243   -4.15833794012544
C          -0.09880834136866    4.75322287255472   -6.93978935000808
C           0.77549689018937    5.85044673466488   -6.81208702565345
C           0.40716205662292    6.70233896524165   -5.61791766996161
S           0.26703104554937    3.73517606865483   -8.26142488007233
C           1.62448967393361    4.77637851671163   -8.68092833415081
C           1.74154749035852    5.85694352162314   -7.78518959438934
F          -3.55926838131426    6.97724934839477   -2.04670612688546
C           1.56395859182956    6.62018634818489   -4.59678265608716
C           1.28183476215974    7.27102470050008   -3.24948137867528
C           0.09970442180643    8.15445681056955   -6.01562673338592
C          -0.96002216064773    8.25342265252539   -7.10676849073102
C         -11.66508375702069    2.84028601599003   -1.24679356414161
C         -13.06452629684590    2.25826364955902   -1.10220898021100
C         -10.54270375192951    1.41592810695952    0.54887595034211
C          -9.59086716007129    1.38806513381765    1.73907852403953
C          -6.04689187803796    0.97980225683720   -4.84716457170014
C          -6.65022937350234    1.34405637818383   -6.20006512693946
F          -5.70737739171422    6.65725673115168   -0.63755488870055
H           0.68088588470502    0.14731808364548  -12.17867469132662
H           4.64084110898532    2.35555144594812  -14.24947754559556
H           3.25655210313723    5.39050409621920   -9.80165901503256
H         -12.44209102844987    9.59706516395457    6.19277319988572
H         -16.72203165105340    7.40416931349222    7.50596858652917
H         -14.40400920729071    4.19094656853172    3.60496212522672
H         -13.28551249304573    2.93318126939709    1.94260110026584
H          -8.29923321353161    2.64966887042771   -1.77593770811631
H          -1.80891203706159    6.98376766539737   -3.47168799609094
H           2.51662257812715    6.59498015380451   -7.89341524424901
H           1.79737153718911    5.56438647105630   -4.43752480806239
H           2.44018874046271    7.08860631745996   -5.04962137028834
H           0.44063218305393    6.79314170020952   -2.75566810474166
H           2.15460102900413    7.16449892191404   -2.60943035265203
H           1.07157909106693    8.33135696518440   -3.35655838735894
H          -0.24810017321756    8.69358909687782   -5.13424225925779
H           1.02350877907487    8.62248123762548   -6.36069718136966
H          -1.89482428132510    7.80563727851975   -6.77706517882987
H          -1.14684267028609    9.29663410066461   -7.34910871107614
H          -0.63546871392472    7.74427692495651   -8.01134629296180
H         -11.74632445355443    3.87262169676221   -1.59612616002376
H         -11.11377155534417    2.27734675208084   -2.00292987763038
H         -13.65150515235664    2.83230747861211   -0.39118104659317
H         -13.57035081664942    2.29470106911309   -2.06432817911516
H         -13.03267314346760    1.22190763924969   -0.77817050315567
H         -11.48818480078864    0.95744499268463    0.83955112068657
H         -10.11721422033695    0.83462971587989   -0.27142640372701
H          -9.99564892690090    1.96250139547282    2.56920174686090
H          -9.44173221832380    0.36394025082953    2.07222507320696
H          -8.62322776979000    1.80603386975343    1.47143785418885
H          -5.11247319496608    0.43251515709357   -4.98749577299195
H          -6.74528381829451    0.38754158822421   -4.25397383572769
H          -5.95194158225012    1.95680815668655   -6.76438228037690
H          -6.85978898907332    0.44027467824267   -6.76430361340716
H          -7.57728157072099    1.89636361058717   -6.06619081163379
