62
 SCF done       -114.148068069298          0.000502485130
C          -3.15787624838288    1.24421733761351   -0.03966804290032
C          -1.82915261196871    1.59546305040806   -0.09424649254260
C          -0.86640593921289    0.59199351875011   -0.08140150379497
C          -1.26473901280033   -0.76897937397078   -0.01662031866471
C          -2.60269509392825   -1.11648104953815    0.05842990291213
C          -3.55713809842466   -0.10081744718590    0.04462146371570
C           0.56180596113542    0.59242317672573   -0.12296763651404
C           0.96244196072796   -0.76723573022819   -0.08968881159142
N          -0.15050488600166   -1.57115449581527   -0.04902552814662
C           1.52640972935537    1.59392026078879   -0.16647618601443
C           2.85461465313379    1.23711007373507   -0.18451937132151
C           3.25604713354025   -0.11174038907216   -0.15483325446555
C           2.29945318167283   -1.12286590002604   -0.10399075876844
C          -0.12638971489091   -3.00484793562516    0.07465919458086
C           0.07992096053507   -3.44174758622428    1.52418710789522
C           4.67457828373947   -0.45009974231999   -0.17030487227394
C           5.17757533670815   -1.59997018329765    0.49182041983628
C           6.58399243172772   -1.90084854431269    0.47818665284873
C           7.51231705572996   -1.07162531307199   -0.20952775748503
C           6.97555234401457    0.03564560591750   -0.85298349731819
C           5.61319228166355    0.32976547464267   -0.82754396931538
N           4.49239700200167   -2.50023211581044    1.20054882406526
S           5.50771227827945   -3.60101534318339    1.77787454540880
N           6.86840907854445   -3.00380295356133    1.16654412576599
C           8.89277328837397   -1.44627589363549   -0.18247786606134
C           9.95699836658764   -0.81547630995580   -0.74761507130559
C          -4.97450863013313   -0.43628049782783    0.13478069796461
C          -5.96631962180754    0.31565374070411   -0.54390999676204
C          -7.35686519381049   -0.03561873137656   -0.43916779772151
C          -7.78444910248131   -1.13238490775188    0.35864632100755
C          -6.78067848599768   -1.83943310375471    1.00743322852190
C          -5.43269502148426   -1.50251570895136    0.89201689416424
N          -5.78581881601323    1.36469341208645   -1.34860431926116
S          -7.20741290147925    1.85545265705089   -1.90224692336086
N          -8.13323338319060    0.77011367920734   -1.16011521260664
C          -9.18767282307901   -1.40378668068768    0.42486140248794
C          11.25353565317369   -1.36456459423603   -0.60071163767673
C           9.93959956698378    0.37774146785440   -1.50052280934998
C          -9.83424362561642   -2.38147718063305    1.11470118942910
C         -11.24519417583231   -2.47203093972737    1.04315457242332
C          -9.25346643266575   -3.37083536595056    1.93598464432140
N         -12.38750065782942   -2.54433325253191    0.98322357869899
N          -8.84124158895772   -4.20081383604553    2.61345210461482
N           9.99203634671102    1.34516978692708   -2.11606944081879
N          12.30231205267562   -1.81185955349183   -0.48302570294560
H          -3.91643225343541    2.00936780538284   -0.04592439778052
H          -1.53546037423860    2.63250033103396   -0.14590658380729
H          -2.91106761442004   -2.15023082534289    0.09265177272551
H           1.23501424763292    2.63298533135928   -0.17780272283688
H           3.60854727839087    2.00898392618387   -0.18361781002916
H           2.60924638476993   -2.15422917456913   -0.08258107813497
H          -1.06940760571700   -3.40072046877706   -0.30960612372911
H           0.68309089446518   -3.39227903299539   -0.55068059041277
H          -0.72244349938968   -3.05977614407248    2.15127587767045
H           0.08957136397498   -4.52623090139962    1.59015291584082
H           1.02556778555630   -3.05893079018648    1.90051331157651
H           7.62811248669478    0.69738721746493   -1.39980613865855
H           5.27692333053925    1.19905614248391   -1.37138300787963
H           9.09769927185720   -2.35698453571910    0.36800048308575
H          -7.04363571742851   -2.67840883923396    1.63178699187286
H          -4.71758766119146   -2.08976568667402    1.44795808761199
H          -9.80055119908771   -0.72747693755253   -0.15942307878857
