121
 SCF done       -186.637263090122          0.000947923596
C          -6.13042234339683   -1.38703017421214    3.92610577209544
O          -5.77182278723488   -2.50790381798666    4.24285846872456
C          -6.90339351498641   -0.44861293904837    4.76075546284792
C          -7.36848509870167   -0.61947960220139    6.04619101540542
C          -8.08072010502968    0.41688879328728    6.65044062132436
C          -8.29922716074694    1.59033984204129    5.93551681879257
C          -7.83392072163637    1.76791494574933    4.63960081439832
C          -7.12680901463014    0.73842818143246    4.03998439480300
C          -6.51554749584149    0.61197253597243    2.71918179161001
C          -6.55897179273110    1.56706806317466    1.73532576769651
C          -7.20054345929791    2.81566409015158    1.87333822380083
N          -7.69878736923783    3.84952981136991    1.91349057912013
C          -5.99201752825271    1.45907419479869    0.44910218857724
N          -5.56209673617283    1.45675335204346   -0.61695010894930
C          -5.88787415941291   -0.69379340963252    2.65564027593941
C          -5.17161819374854   -1.18573545263657    1.59364728910606
C          -4.52835639025178   -2.41664346853287    1.41389364449971
C          -3.82684019693018   -2.71597223934884    0.23610021577342
C          -3.28348532750858   -3.98211983771837    0.24441402104356
C          -3.54228354159209   -4.65480955154916    1.44053620441731
S          -4.47342460627353   -3.75317702442712    2.55240830799153
C          -2.92951959762804   -5.94498879275426    1.42272499197047
C          -2.27053039184926   -6.08292947946355    0.17903391119453
C          -2.42255656167753   -4.82558374319449   -0.66354070129604
C          -3.13024730700437   -5.18780108670213   -1.98284278171422
C          -3.41868380283598   -4.01252231324782   -2.90743251660771
C          -1.08105391522988   -4.08520630287330   -0.85385732337838
C          -0.03559821727741   -4.80884956350526   -1.69176582019622
C          -1.65683384725375   -7.27287309167790   -0.13951703071097
C          -1.65352290175331   -8.28238565714667    0.81990435988260
C          -2.26182480666585   -8.12053202594704    2.07914334870643
C          -2.93841304024044   -6.95833894294708    2.37727999751846
C          -2.11296439018003   -9.37939497980202    2.90939829029493
C          -1.24596095068321   -9.15994679204363    4.16748674401742
C          -1.82625670099570   -8.23616943407609    5.23011204139885
C          -3.52812608150924   -9.91684151578600    3.21060885500769
C          -3.59848540130164  -11.22761595843165    3.98306329135716
C          -1.33891743718462  -10.27452768904298    1.96292534331578
C          -1.08880845739204   -9.61085202920455    0.74613114624749
C          -0.38036271886919  -10.21345345504279   -0.29083323963875
C           0.08957315240818  -11.48952066618875   -0.08793382429314
C          -0.13487078055486  -12.14219538665461    1.14619399066711
C          -0.84142770654768  -11.54077589349693    2.18305310574986
C           0.49584537163556  -13.42158210090159    1.06022889673445
C           1.10351623850140  -13.58771024999749   -0.18292502706430
C           0.88674928844064  -12.36712136919246   -1.03324402941531
C           2.22384782470609  -11.71313265177654   -1.42772358182627
C           3.08459680999742  -11.34728978187332   -0.22465930611643
C           0.08223003874729  -12.70393318445803   -2.30310596450283
C          -1.26093464865643  -13.35751869975084   -2.00143811811605
C           1.74659508190385  -14.80382264223500   -0.32364331809925
C           1.64132553423442  -15.59227213802030    0.81927374723456
S           0.70030695838446  -14.77577788031953    2.07592788220886
C           2.11170426139334  -16.87520122217705    1.14467194821695
C           2.93797463540046  -17.74211870279903    0.47709669227202
C           3.30139755275835  -19.05186387711696    0.99501644904227
C           2.71599262688254  -19.72588248070744    2.03593471679799
C           3.12456775275278  -21.00218741518834    2.47707195100356
N           3.40201676916172  -22.03687358740071    2.89098140015685
C           1.61073549878433  -19.29083164113693    2.79722166242928
N           0.70656762342589  -19.03254129758256    3.45800005314975
C           4.37593193962552  -19.57807788099916    0.16021400502058
C           5.13530724544313  -20.73549842077159    0.24037543274387
C           6.09833913567994  -20.96677569826580   -0.73030985511226
C           6.32581930004813  -20.08075211031780   -1.78113279326442
C           5.56417544774926  -18.91687969416500   -1.85835913236783
C           4.60788141474363  -18.67933233948941   -0.89346014648987
C           3.70145369862046  -17.52050689395224   -0.77068249322122
O           3.63752566416645  -16.59326078834464   -1.55388874947238
C           7.38887237210294  -20.36126727281671   -2.79505707925369
C          -8.59749657323463    0.25236841894995    8.04413757759285
H          -7.17877347045509   -1.54424094842776    6.57056554284522
H          -8.84940684646847    2.39405934125669    6.40295533740455
H          -8.02716209667389    2.69570533036927    4.12676098619935
H          -5.06552159041334   -0.52953814538101    0.73802831315583
H          -3.74257428425622   -1.99649741206032   -0.55899237667064
H          -2.51864603775364   -5.92031549025925   -2.51162047732089
H          -4.07338638710240   -5.67757358216324   -1.72579957280953
H          -3.91042908945106   -4.37352405908868   -3.80823227321752
H          -4.07911558659909   -3.29507622664644   -2.42951470384131
H          -2.50422932120697   -3.50565643250634   -3.20305916193815
H          -1.29533941677756   -3.11482794856513   -1.30460674809200
H          -0.66627284701147   -3.89719752326670    0.14020953852445
H          -0.41127571040177   -5.03777740163266   -2.68541698629162
H           0.83972506996075   -4.17196199236583   -1.80137641754492
H           0.27901039002717   -5.73025282593663   -1.20987531062636
H          -1.20025414879608   -7.43966391659365   -1.10244132681820
H          -3.47664692282023   -6.81512355524183    3.30071698725182
H          -1.04833490861795  -10.13544624413713    4.61465470398474
H          -0.28520791246990   -8.75591442406362    3.83594354804831
H          -2.79750078078761   -8.58328304071433    5.57177912408596
H          -1.15675030190310   -8.21305547516119    6.08764457947344
H          -1.92448107054793   -7.22134531546762    4.85594922166429
H          -4.06790932723965   -9.14768032321298    3.76492323496179
H          -4.04056692143979  -10.04444768082732    2.25291004294107
H          -3.06394493940279  -11.16303398306482    4.92689551198643
H          -4.63912050262052  -11.45866986630742    4.20133477683097
H          -3.19045024923699  -12.04841350539758    3.40027337511098
H          -0.20238490837498   -9.68777341322332   -1.21677652924617
H          -0.96880167096173  -12.06251978539219    3.11837492202653
H           2.77164410238558  -12.40850593575975   -2.06642873692709
H           2.01350346097340  -10.81402620922032   -2.01048140942125
H           3.34245302592410  -12.23508623468113    0.34802402606046
H           4.00654505045058  -10.87566390444096   -0.55614339838181
H           2.55921090212513  -10.65535945460626    0.43040401497226
H          -0.08166411438525  -11.78215308025641   -2.86502229704109
H           0.68123938393497  -13.37436845059891   -2.92233409160766
H          -1.87896471175266  -12.70471272666024   -1.38855849449175
H          -1.79127106256169  -13.56344292387957   -2.92809679338689
H          -1.12259963994213  -14.29715258005099   -1.47162525594285
H           2.28069889446443  -15.13241542558557   -1.19550605340023
H           1.76631663230010  -17.21282139409045    2.11521225447051
H           4.99677266225111  -21.44940616572711    1.03546514952686
H           6.69250336016954  -21.86704135311798   -0.66905571018707
H           5.71080593437391  -18.20452804875409   -2.65661603988657
H           7.14173660556162  -19.90763553213877   -3.75170532490068
H           8.33790828477854  -19.94160400862948   -2.45907371229938
H           7.52522233320938  -21.43133116033871   -2.93145819027478
H          -9.32143464252596   -0.56101130909647    8.08169230792571
H          -7.78326907345551   -0.00010200314728    8.72183088329493
H          -9.07760105796296    1.16158585455593    8.39568824144952
