138
 SCF done       -239.120984487784          0.000659364323
C          -2.13209675685227    0.45903358754106    0.96246167474895
C          -2.82358972638333   -0.73344322050521    1.17730265517191
C          -3.07578212494082    1.63449079020525    0.92332599268547
C          -4.39403381657398    0.92387621910833    1.10740606207168
C          -4.20398709661149   -0.44876205094690    1.28008354982755
C          -2.90822523797878    2.60724118931413    2.07858832568141
C          -2.91752074287590    2.33999406309239   -0.41091010907358
C          -5.73870746304978    1.26142483961159    1.17059723167630
C          -6.57052258532926    0.13742364743363    1.38250438643638
S          -5.66207373038284   -1.34471891023515    1.52288167776682
C          -3.75317440926195    2.07351616338365   -1.48455137323321
C          -3.55997641945940    2.71671425608375   -2.69380570885156
C          -2.52345156063242    3.62409182177914   -2.86345055317181
C          -1.68023362201408    3.87326568021966   -1.78759316271326
C          -1.87246088818195    3.24043055338021   -0.57548988166968
C          -3.58002679627747    3.82238493410370    2.03288568517307
C          -3.48389074659390    4.71337379368020    3.08354439241276
C          -2.71599595544353    4.41607193954832    4.20277331827230
C          -2.05389072092278    3.19688407115927    4.24412099867619
C          -2.14978675619311    2.29782965903785    3.19713679963815
C          -9.35727461840277    2.52500985526660    1.10765654411146
C         -10.67882147208433    2.17454064700864    1.22681953218429
C         -11.77288741261338    3.10976787453895    1.02748717940033
C         -13.01562925650838    2.42486816407519    1.38466984370779
C         -12.71337137449760    1.09803359079976    1.73085082408506
C         -11.25759731289611    0.87352797839969    1.62757288270214
O         -10.69482861420278   -0.17997720933230    1.84742563183010
C         -11.70319168770656    4.38941544341848    0.54103302762808
C         -10.54036695811317    5.06560344945362    0.11292834276452
N          -9.66004675312183    5.69466367501256   -0.27363931057339
C         -12.82332182016475    5.23081365194578    0.36490245683682
N         -13.68280327100715    5.97258465352708    0.19632024257895
C         -14.32934484404374    2.86307145974750    1.42019595233821
C         -15.29502165269184    1.94193593452835    1.80268339195947
C         -15.00803321286930    0.62794607779865    2.14205299933974
C         -13.69182747102367    0.19693200889693    2.10628774024605
F         -16.57473473151088    2.34627313981041    1.84677012201205
S          -6.66983246412207    2.69337203525416    1.00392992911295
C          -8.17393801394053    1.77654174986333    1.21042052863651
C          -7.92409762411592    0.42420849452481    1.40636846272051
S          -1.81850971909761   -2.14371986945756    1.18589593028974
C          -0.43853389344363   -1.13665761709877    0.87174764644918
C          -0.77344273802881    0.23283234355248    0.77994790746540
C           7.95791668936451   -3.56218510487653   -0.79850492381313
C           9.21839950811741   -3.23954743284995   -1.23381004693796
C          10.28139702144574   -4.21762045034962   -1.38956618672396
C          11.39251230252403   -3.56191074635788   -2.07919931887530
C          11.06881982027560   -2.20805610854861   -2.26456016827192
C           9.72345167806850   -1.93629939559922   -1.71910670754705
C          12.60860293073521   -4.04780603190126   -2.53081060432043
C          13.46005353049459   -3.14513436724552   -3.15329547212247
C          13.15353266261054   -1.80460665943816   -3.33566855847640
C          11.93462050878604   -1.32594924980812   -2.88322079657349
O           9.18010979477520   -0.85056677161113   -1.70229962287568
C          10.30093711919068   -5.50925534914976   -0.93177494108810
C           9.28767763210080   -6.14757296024888   -0.18438011144154
C          11.38293714606186   -6.39712808297064   -1.11641752497454
N          12.21878417423682   -7.17474811221830   -1.23380619113588
N           8.53181369770974   -6.74428922176803    0.44189810195797
F          14.64216952013406   -3.59520708973056   -3.60386695430652
C           0.91772591465854   -1.36413850512523    0.67240625179309
C           1.60165666959390   -0.17547865756161    0.41657704998857
S           0.60235491537222    1.23809292935153    0.44350747697766
C           1.84358962785932   -2.55174452368652    0.58835917568371
C           3.13373443336048   -1.85885635324609    0.22361905672988
C           2.95748286366867   -0.47533641868143    0.15509933960545
C           2.05903042463362   -3.27301751854696    1.90776800353799
C           1.31257762510996   -3.49775618151671   -0.47321595807237
C           2.72616449924320   -4.49175892695297    1.90247574451484
C           2.97920250433595   -5.15470039796061    3.08684521740675
C           2.57180354325643   -4.62091297701822    4.30358952221735
C           1.91147432700332   -3.40024030615500    4.30116227191662
C           1.65974693705805   -2.72819977014983    3.11827303065420
C           1.76969311347254   -3.46072339953290   -1.78159760531134
C           1.23477252478298   -4.31302214937834   -2.73082627466035
C           0.22561146181935   -5.20716831399844   -2.40134278048602
C          -0.23592804045901   -5.22923649096614   -1.09091475678305
C           0.29822095984157   -4.38561261798306   -0.13714663139067
C           2.88830699655834   -5.32338668578226    5.59171675264135
C           4.26908609809868   -4.90432405235961    6.10085900061084
C          -0.31881647027667   -6.16434709177824   -3.42130812218791
C           0.47319054712009   -7.47336990326470   -3.39681125639851
C           4.44995109424057   -2.21485637302522   -0.03626152486412
C           5.26834327864290   -1.09659760498301   -0.31863681988473
S           4.39108338466370    0.40797000986051   -0.23446567517412
S           5.34686998911388   -3.67447460293947   -0.13901887510841
C           6.81344937051550   -2.77921206582672   -0.57781692459044
C           6.58259376085695   -1.41040528932650   -0.61854882604944
C          -2.64855947165860    5.36693884016307    5.36235543504464
C          -3.76915574991811    5.06980645025320    6.36092360846979
C          -2.35051499820437    4.36158089538613   -4.15900250517959
C          -3.14254327037131    5.67058403794709   -4.13123043508130
H          -4.56143306371294    1.36437345278599   -1.38153202185442
H          -4.22547851784237    2.50616614382737   -3.51857441093506
H          -0.86314522642552    4.57114258751405   -1.89935112004864
H          -1.21346716708043    3.45247128872152    0.25412005903172
H          -4.17431449007476    4.07271898244255    1.16614450090497
H          -4.01129621356972    5.65466093329491    3.03160872557976
H          -1.45286105828560    2.94517969592893    5.10622315455917
H          -1.62792981324848    1.35379222459823    3.25546904204860
H          -9.16797762612076    3.57037733747914    0.89324206764861
H         -14.62613266584401    3.86826532881244    1.17191878211623
H         -15.81146295740735   -0.03219889702476    2.42779358877484
H         -13.42393839597401   -0.81591518875398    2.36353356727383
H          -8.70738275215236   -0.29600111609901    1.55449749165923
H           7.78372723854109   -4.61453613368770   -0.60594311008108
H          12.91176183549248   -5.07603042683644   -2.42554100377228
H          13.86635946732407   -1.16130836970912   -3.82660339855158
H          11.65566628698206   -0.29119052786913   -3.00662209527567
H           3.04145465959230   -4.92447890409399    0.96413653537044
H           3.49926873101945   -6.10109734176404    3.06548675793457
H           1.58790064932298   -2.96652478866926    5.23660605888721
H           1.14838873321120   -1.77695017359716    3.14365975067991
H           2.54719305823159   -2.76683312847658   -2.06611439910952
H           1.60635692022132   -4.27737316132712   -3.74489037563244
H          -1.02435669828247   -5.91385059952228   -0.81372376464699
H          -0.06754939504939   -4.41991796815099    0.87892980477556
H           2.13639456756817   -5.07673505435406    6.34387052387272
H           2.87613193137895   -6.40380132285341    5.43618511169597
H           4.29976629888003   -3.83038014933469    6.27167109798045
H           4.49985678573170   -5.41151991121610    7.03455843053150
H           5.03403380068759   -5.15637255017605    5.37000685637957
H          -1.36855072954543   -6.37499796316509   -3.20769484336692
H          -0.25378359389032   -5.72248589329950   -4.41751476982219
H           0.41036466468129   -7.93502054045130   -2.41400712450442
H           0.08017710248123   -8.16945740909425   -4.13390863855955
H           1.52115006896641   -7.28581100714591   -3.61960311959154
H           7.34798647186024   -0.69805015232503   -0.86503621814605
H          -1.68423500028245    5.27134004482630    5.86500326797496
H          -2.74855191438659    6.39355952024623    5.00535664667937
H          -3.68448075494419    4.05143011111771    6.73359595910268
H          -3.71849990898411    5.75402932143805    7.20449875598000
H          -4.73983283613667    5.17885516560975    5.88266763920666
H          -1.29381973415111    4.58323674538756   -4.32098965869501
H          -2.70257674438556    3.74472208277966   -4.98808291426440
H          -2.79826073240984    6.30327598001651   -3.31628661779582
H          -3.01848535398299    6.21022563698686   -5.06696381551263
H          -4.20103645787868    5.46936268581851   -3.98325246007120
