158
 SCF done       -270.232876749096          0.000256286047
C          -1.34176038527433   -4.23205641275307    0.27498469701516
C          -0.75737411018155   -5.26757790204161    0.95130206341877
C          -0.25751213231454   -6.54690422670251    0.50914064429635
C           0.64778245678468   -7.03920790906832    1.54762449175147
C           0.51625829605607   -6.21857667395197    2.68203736547998
C          -0.43450045007707   -5.11830415024623    2.38850327421844
O          -0.82204795684912   -4.25583926920459    3.14356176797697
C          -0.75951950482328   -7.29574294679984   -0.52410297668714
C          -0.29614637644774   -8.58276915646741   -0.85879583790147
N           0.06182469967584   -9.62634427035301   -1.17575530045042
C          -1.87330133202376   -6.89063277737760   -1.28906782070854
N          -2.81648264335231   -6.61715084534178   -1.88365870997978
C           1.50998380723201   -8.12237425625716    1.56627968355421
C           2.22705669388373   -8.35984515971142    2.72988522116213
C           2.08387701049956   -7.54889562608445    3.85564562048671
C           1.22134562919472   -6.46391892616860    3.84338255138186
C           2.23511407801649    2.00482928002712  -19.09154435059843
C           1.78686926443363    3.11444382818604  -19.77321532329792
C           2.28373091326842    3.57204564022379  -21.05165590603997
C           1.53827049663552    4.78345360568307  -21.40277270095770
C           0.61829274330392    5.06005864363640  -20.37800980275101
C           0.73689678180210    4.02876647335364  -19.32333516501277
C           1.61178221937313    5.61893260082807  -22.50581520366341
C           0.75984616590079    6.71311987743504  -22.55251482196867
C          -0.14915710901036    6.97904180981888  -21.52942712532304
C          -0.22964796709749    6.14787747635468  -20.42326901548787
O           0.08077515389324    3.97401419728564  -18.29974829330413
C           3.27213678165696    3.00954330017069  -21.82027557837726
C           3.70060414939592    3.52650521153031  -23.06085706334620
C           4.00837702728003    1.84981585989983  -21.50250132452136
N           4.65564043592513    0.91699130300954  -21.32404797005340
N           4.09863788807373    3.89218235299220  -24.07375126514929
C          -1.32390981959621   -3.93941860907990   -1.09923653092850
S          -0.15117979529692   -4.66009233967789   -2.20966293406276
C          -0.75253776771037   -3.69209039975665   -3.49428365869234
C          -1.81334694343400   -2.85005265487499   -3.06937508460115
C          -2.11309051076690   -2.97852427805715   -1.72173343081643
C          -0.55026872833647   -3.42766135425471   -4.84213712892697
C          -1.49458531550023   -2.42973852121620   -5.21178042183175
N          -2.26309342851270   -2.10488115066346   -4.12902887861198
S           0.46447661492335   -3.93069722800540   -6.15450274325680
C          -0.36911448183599   -2.80689110817187   -7.17578116606497
C          -1.37694018015414   -2.08170579609240   -6.56080324440677
C          -0.19619388668637   -2.39294864121948   -8.53145115759132
C          -1.11896441460170   -1.34877841153613   -8.76744341198518
C          -2.01113760921297   -1.12772103885734   -7.54798216212430
C           0.71490259454020   -2.81325423365744   -9.49640476365108
C           0.71324563722604   -2.14245375299120  -10.69590111709638
C          -0.17010402134003   -1.06278673744833  -10.91231205567201
C          -1.09995263385833   -0.66045864172559   -9.95692689797196
C           1.61753454888282   -2.35744285729643  -11.90617010957438
C           1.12502211239449   -1.26285597802134  -12.83018757431847
C           0.11013658680248   -0.54500940262613  -12.21276187980288
C           1.40058353784129   -0.74603254959690  -14.10089468878576
C           0.59276496062972    0.38958765123786  -14.39046163352730
S          -0.52420428517662    0.78049681078698  -13.12449848024871
N           2.23368553321638   -0.98696211211469  -15.16079114432700
C           1.99409973366561   -0.01289220610793  -16.09685359872043
C           0.96753898075135    0.86217912395371  -15.64260199532385
C           2.48588063009300    0.33158643914602  -17.33749917651238
C           1.86007830301086    1.47536379256997  -17.85571941409832
S           0.62388726927622    2.11677231818691  -16.76691246715042
C          -3.42978794574580   -1.53232373978646   -7.91472221462795
C          -1.88708368150835    0.29943750969448   -7.04262844532104
C           3.04368929544736   -2.14747369392869  -11.43472389791881
C           1.35585627195403   -3.70807228757073  -12.55203252533293
C          -2.97887824889750    1.08860307377723   -6.71119137469520
C          -2.79619072541944    2.37520306626588   -6.23464622502639
C          -1.52493425178044    2.90543424597556   -6.06981540389415
C          -0.43324057074081    2.10800908461833   -6.39257605866223
C          -0.61028788223976    0.82547511422553   -6.87221949481164
C          -4.02152469054353   -2.67409783601326   -7.39094431098845
C          -5.30391885072404   -3.03951308515357   -7.76035871127454
C          -6.03079237752610   -2.28344940284479   -8.66834550345246
C          -5.43641844974808   -1.14321897317473   -9.19408643511774
C          -4.15709057854140   -0.77411278840221   -8.82698022067066
C           3.71223052503891   -3.15458902472147  -10.74644570860368
C           4.99506739245503   -2.95533817619948  -10.27410401879024
C           5.64540524407088   -1.74193219261933  -10.45889154896554
C           4.96574664065169   -0.72853783231943  -11.11948567418648
C           3.68138413263605   -0.92443759382743  -11.59629642237037
C           0.04114069146376   -4.14372387184430  -12.67656927321203
C          -0.25046401017293   -5.34072779626304  -13.30079603060483
C           0.75977485536784   -6.13778638652057  -13.82453743553262
C           2.06992770186823   -5.69643089666271  -13.70731115009943
C           2.36793533217200   -4.49819401512969  -13.08161447076304
F           2.79152964512525   -7.81959676077229    4.96044370303896
F          -0.95197892023040    8.04785055060585  -21.61602843981456
C          -3.27819700588588   -1.08604617806814   -4.05065496522085
C          -2.72939319077831    0.20034967535399   -3.43852786805790
C           3.18930239896428   -2.05283430143365  -15.32544839132159
C           4.60118690369210   -1.62727366719336  -14.93012628614899
C          -1.33063585108695    4.28149278210877   -5.50327144566420
C          -1.19205389666706    4.21551967665548   -3.98072289831721
C          -7.43697056763362   -2.65857906513002   -9.03508709108249
C          -8.43257212655973   -2.00784483361235   -8.07244498467179
C           7.06176989039574   -1.55068379775149  -10.00153075721338
C           8.03550725839063   -1.96942682517906  -11.10535983925167
C           0.43811039087113   -7.41530068995802  -14.54348398767630
C           0.19636746105604   -7.14471636873588  -16.03003054173618
F           3.07942515668810   -9.39114829711275    2.76812181502848
F           0.81654055419995    7.53221504901403  -23.60989131436249
H          -1.80149633479193   -3.47695900219386    0.90596667445035
H           1.65238647476106   -8.77269664889566    0.71848271018402
H           1.11049914669141   -5.83734173785104    4.71392291265517
H           3.01934714074544    1.43339446161433  -19.57288968530079
H           2.29552086184590    5.45943657609652  -23.32308866388824
H          -0.93079295748717    6.34902811822465  -19.62914494538065
H          -2.87807863717721   -2.43775506309770   -1.19481044583354
H           1.39448518854085   -3.62311598344406   -9.28502303776158
H          -1.75018105789341    0.17551958621320  -10.15844569123187
H           3.26285849421753   -0.18340317499552  -17.87356193812383
H          -3.98381338197733    0.70972805152141   -6.82591327038561
H          -3.66033737904105    2.97558710236169   -5.98851254242629
H           0.56707829534276    2.49801234898541   -6.27059727497023
H           0.25130552323745    0.22226696506629   -7.12155135760631
H          -3.48466114572228   -3.29551596062623   -6.69000448538872
H          -5.74108511405212   -3.93241314158695   -7.33712449084527
H          -5.98042761729256   -0.53697966583900   -9.90430205740122
H          -3.72666726368488    0.12105121830132   -9.24820520968757
H           3.23194674089229   -4.10827459506947  -10.58562997716575
H           5.49779170825502   -3.75491588233421   -9.74907090341023
H           5.44427479612632    0.22984133516120  -11.26341988759045
H           3.17400198903459   -0.11095148590659  -12.09433899790227
H          -0.76130304851054   -3.54045035381753  -12.27689881229040
H          -1.27887953412155   -5.66238080094297  -13.37998574630188
H           2.87377490123107   -6.29750802954299  -14.10806972068531
H           3.40111742823449   -4.19328521002364  -12.99587251846322
H          -3.64599872687696   -0.89808492312784   -5.06044940083470
H          -4.10242706331978   -1.47087340198887   -3.44241996712732
H          -1.90833850611092    0.58380101661789   -4.03921097337913
H          -3.51118134323708    0.95318606764551   -3.40050011001908
H          -2.36828286736087    0.01783240890448   -2.42919622461664
H           2.86135773816214   -2.89930470012723  -14.72012863865479
H           3.17364054192302   -2.35272461135194  -16.37768301860583
H           4.64064379662608   -1.37295399196675  -13.87365384767922
H           5.29568459959396   -2.44124118926370  -15.11854141330112
H           4.91286269490487   -0.76218120146977  -15.51081286484091
H          -0.43146934301809    4.73275374543044   -5.92700030740483
H          -2.18379938870808    4.91217869371518   -5.76002733985933
H          -0.33839164897352    3.60061783721844   -3.70411567019644
H          -1.04996291613157    5.21156031169370   -3.56879230483034
H          -2.08479961836828    3.78006913069563   -3.53701094299614
H          -7.65387744649793   -2.32981413083658  -10.05330259397230
H          -7.55321196853832   -3.74322250396519   -8.99312172245017
H          -8.34056392585268   -0.92444422169954   -8.10732218227939
H          -9.45126181428614   -2.27823450702957   -8.33952025501672
H          -8.24247015347571   -2.33542383865216   -7.05273089328446
H           7.23252919222735   -0.50233474375726   -9.74937270288268
H           7.24808971418440   -2.15250745594116   -9.11001039472319
H           7.87461105876626   -1.37101721262215  -11.99956881030160
H           9.06321428709970   -1.83427057544207  -10.77735345035491
H           7.88815174532104   -3.01601321969791  -11.36287677876721
H           1.26507601651325   -8.11978627906095  -14.43586807167861
H          -0.45589698722735   -7.86794553885774  -14.11051254244870
H           1.08233564745278   -6.70681878971963  -16.48468655530393
H          -0.03986424284909   -8.06943588666319  -16.55078262361105
H          -0.63219415987901   -6.45186185129438  -16.15893906203254
