138
 SCF done       -238.766963896914          0.000974497456
C          -2.12048375720931    0.16765272888107    0.56578598848908
C          -2.79008304699047   -1.05442147509422    0.63161476506861
C          -3.09388132857394    1.31323708103796    0.44403890105704
C          -4.39714847499350    0.55366146834107    0.41475192019365
C          -4.17967137531529   -0.82121048893275    0.52290227552199
C          -2.92711591028720    2.21314910357229    1.65665456745368
C          -2.97566852419026    2.10631045535903   -0.84503461563230
C          -5.74542397883225    0.84299312455465    0.25692176174283
C          -6.55271300959933   -0.31804430565332    0.25811220703082
S          -5.61808083308864   -1.77740879773199    0.45347216019337
C          -2.26360399853180    1.63280837324475   -1.93623152296142
C          -2.21218910314837    2.36872580804933   -3.10666181141783
C          -2.87483978503992    3.58305704559309   -3.21757220967093
C          -3.59870785129702    4.04343309218723   -2.12434344240504
C          -3.64940699118404    3.31680637620753   -0.95138933093449
C          -1.88527085652149    3.13179686705879    1.67488808163686
C          -1.69056202081522    3.94561925179553    2.77364335179817
C          -2.52628981741068    3.86164634733866    3.88044551758343
C          -3.55923753188782    2.93461746090874    3.85849991780342
C          -3.75659239262437    2.11324141622278    2.76333332515640
C          -9.36699544136510    2.00595759730016   -0.21833186429240
C         -10.66915925373592    1.60814155080161   -0.38733295104721
C         -11.76998937123194    2.53933816942527   -0.57081128947920
C         -12.97052280563918    1.75639829112878   -0.86658784124148
C         -12.64301951907128    0.39260120806546   -0.80628858002034
C         -11.21174211453502    0.23470826142087   -0.48502558871538
O         -10.63815620718015   -0.82653336597732   -0.34302181219161
C         -11.74162837164165    3.90494425018016   -0.45562960823850
C         -10.62564522194976    4.70046395534739   -0.11730439645311
N          -9.78661370974598    5.43563611369003    0.15774518765073
C         -12.86570139757730    4.73926549091603   -0.64020112023702
N         -13.72783975161649    5.48450890962739   -0.77810169663557
C         -14.26581191350750    2.14133654875456   -1.16976585194170
C         -15.20580066875760    1.14165433749149   -1.40153149578407
C         -14.88309655581822   -0.20926367720920   -1.33529957418149
C         -13.58603455740086   -0.59157176906498   -1.03488206034804
Cl        -16.82185689484799    1.59945713042275   -1.78353892614348
S          -6.69916122646462    2.25586219502640    0.06046247346961
C          -8.17838858688371    1.28154312040032   -0.03239498750554
C          -7.90566750438656   -0.07390019164248    0.09832420368960
S          -1.74695195244695   -2.42718174912848    0.79121162847640
C          -0.37554376321295   -1.36178131863309    0.76084642386651
C          -0.74365689160783   -0.00287079457989    0.64460277437840
C           8.26756179835011   -3.45363097895106    0.56848770299747
C           9.58320764350638   -3.07876489810237    0.46222827747755
C          10.68044342984752   -4.02948591487503    0.39141736300115
C          11.92908792721601   -3.26655328965089    0.36048555618922
C          11.61958489451377   -1.89734660593643    0.37445498524431
C          10.15659261321087   -1.71500845428212    0.42754921789870
C          13.25235947691852   -3.67327384706788    0.32070115897448
C          14.23647865925475   -2.68976906998753    0.29274103419615
C          13.92982838027199   -1.33355022534334    0.30239937546791
C          12.60559006966538   -0.92933754400674    0.34440944062606
O           9.58385927876536   -0.64384116259359    0.44206142297898
C          10.60515932742488   -5.39695485853834    0.33133769228151
C           9.43150004214195   -6.18126808641154    0.31849615231043
C          11.72747326787484   -6.25037080605936    0.25346496871582
N          12.58381611927113   -7.01246615401637    0.19243849193209
N           8.54584255027110   -6.91342853844903    0.30236414848934
Cl         15.88858719526365   -3.17518387108526    0.24471722495693
C           1.00244597500791   -1.53537493590694    0.80389054844390
C           1.67379343199271   -0.31654272754360    0.70626780713756
S           0.62959165812896    1.05951015636088    0.58541624547091
C           1.97410581641720   -2.68713650859280    0.86355876462285
C           3.28069185985422   -1.93882039822366    0.76409469282509
C           3.06571968215558   -0.56079612464056    0.69640289858005
C           1.96540326001953   -3.44497807077944    2.17990850429071
C           1.69128243186209   -3.61513698238370   -0.30429267050204
C           2.67432358014998   -4.63656464482186    2.26988092334922
C           2.72337640562460   -5.33169088487480    3.46183082240408
C           2.06543662859165   -4.85850288261762    4.59079283077546
C           1.36452165590190   -3.66460329376999    4.49446225721683
C           1.31624058128582   -2.95997976970608    3.30470241414010
C           2.38654300106965   -3.51926707965683   -1.50006440501088
C           2.07712092406424   -4.35837468198976   -2.55534568722489
C           1.06106489827392   -5.29777830306408   -2.44770208808831
C           0.36050222495022   -5.37901069201571   -1.25044153603462
C           0.66897085501460   -4.54896555432899   -0.19082837705894
C           2.15680285087263   -5.59514890554680    5.89554847673368
C           3.38524667047392   -5.13389966826156    6.68264165110493
C           0.75874165058028   -6.23856343868449   -3.57746518360503
C           1.57203189590788   -7.52618882821165   -3.42947022159267
C           4.63491880804206   -2.24221088754046    0.74105480604518
C           5.44757724405510   -1.08891388210672    0.64367270727276
S           4.51147421902797    0.38191187927491    0.60045357957852
S           5.58997555689159   -3.66781327220471    0.75795704693085
C           7.07731592789876   -2.71074472882818    0.62552115049191
C           6.80538325620227   -1.34952914755986    0.58003195548832
C          -2.35136451014280    4.78727157801423    5.04898726068594
C          -3.19658068889525    6.04846272491735    4.85769681813352
C          -2.85731523850340    4.35629985081306   -4.50407686248079
C          -4.04819999228320    3.96029768870649   -5.37942348962539
H          -1.74381993385711    0.68749843501286   -1.87858409161890
H          -1.64631305658469    1.99033309686631   -3.94594664179371
H          -4.12695117432239    4.98333313829442   -2.19025569261103
H          -4.20942170823811    3.69341262722719   -0.10785040566769
H          -1.23078331699849    3.21495549697766    0.81918344177807
H          -0.87709157472569    4.65659107968387    2.77096077477056
H          -4.21919556231729    2.85069468879278    4.70997084111966
H          -4.56403098858975    1.39588226730434    2.77478596202608
H          -9.19731406043125    3.07592348733022   -0.24632144856038
H         -14.56064511016151    3.17532733104178   -1.23374767005791
H         -15.64621750091447   -0.94848483190493   -1.52030115116514
H         -13.30604437520840   -1.63205625853552   -0.97888381472990
H          -8.67185174713762   -0.82646562320042    0.06933703384106
H           8.08846887700643   -4.52127469413120    0.61634250726250
H          13.53703717338691   -4.71201513157645    0.31253280165703
H          14.72681493414270   -0.60744267380467    0.27819588302451
H          12.33759938724566    0.11575691411700    0.35431328299891
H           3.18290105318240   -5.02333291269690    1.39876362340914
H           3.27839946396650   -6.25686139488974    3.51487598935702
H           0.84695453099911   -3.27767267231089    5.36061390714050
H           0.76717474330899   -2.03076870477918    3.25828163459236
H           3.17517036675078   -2.78980705549614   -1.61332429576765
H           2.63359388029605   -4.27710793110236   -3.47803867207462
H          -0.43746786148712   -6.09980934182171   -1.14624436234429
H           0.11875898600547   -4.62972372331614    0.73553745583240
H           1.25903987222191   -5.41182134771859    6.48907796824773
H           2.23168748822327   -6.66825571116218    5.70968633956199
H           3.32285781220660   -4.06814441117436    6.89148560802617
H           3.45525581486843   -5.66949168613312    7.62635065678434
H           4.29182031026083   -5.31765031455023    6.11050731777197
H          -0.30528775809302   -6.48342310994792   -3.58007586209207
H           1.00382033883333   -5.76540840671841   -4.53035102747142
H           1.33238896236783   -8.01924096912181   -2.49012764387208
H           1.35358305798657   -8.20948273394336   -4.24662796495051
H           2.63676008347227   -7.30443061140218   -3.43667856444813
H           7.57644377691271   -0.60549354981509    0.50123407610775
H          -2.65746490126651    4.28538806865475    5.96910386036311
H          -1.30095910936212    5.06868750003056    5.14513376949335
H          -4.24936926947519    5.78944883944662    4.77154463767524
H          -3.07210923463860    6.72123897743851    5.70281432443489
H          -2.89802842075912    6.56977156730576    3.95099673338048
H          -2.90729737886104    5.42617401925742   -4.29282044092716
H          -1.93023385567785    4.15654991935018   -5.04483151585674
H          -4.98258153627483    4.16322865833920   -4.86101874670951
H          -4.03853837667807    4.52118733976539   -6.31090328069955
H          -4.01013402726294    2.89840387344671   -5.61244984619158
