118
 SCF done       -219.989316217192          0.000685939772
C           0.19794185806668   -2.45213917689624    0.28668175932768
C          -0.96656928075568   -1.71747323230787    0.32648642640637
C          -0.78568506379723   -0.33515621453009    0.16981405544205
C           0.55032427740524   -0.00282677499017   -0.02377343664284
S           1.57051455366696   -1.41092872574682    0.03736137157990
C          -1.88723829453960    0.62287920571849    0.26889308537580
C           1.16352925335178    1.26697383004028   -0.25132127975984
C          -1.72856269578415    1.81804090159279    0.94680776040576
C          -2.77218658051913    2.74334931682875    0.99052299258341
C          -3.98575756361942    2.42988319485562    0.40121519587153
C          -4.16119252549547    1.20402841749888   -0.24297723931900
C          -3.11068191259202    0.30482028020407   -0.32085418904177
S           2.73327150922766    1.56042774682003    0.43956230196855
C           2.75940183239023    3.18390616376173   -0.18988124807747
C           1.60526048664622    3.44879771276075   -0.89435167233345
C           0.70500732857523    2.37506400366325   -0.95245439530807
C          -0.52427353884367    2.43010105767219   -1.74773618988377
C          -1.34049730860708    3.54892374808414   -1.66741253377221
C          -2.49946485913501    3.63000726022783   -2.43365397388274
C          -2.80491828630799    2.61393374564212   -3.33354426652359
C          -1.96466668640825    1.51033679362994   -3.43972740585185
C          -0.83890379010990    1.40626134577216   -2.62984058540691
C           3.86908390548544    4.03594140107389    0.02784310094825
C           5.03785735050356    3.71274688143391    0.71194080538405
C           5.93862502863708    4.75354843529870    0.74207058974599
C           5.49598676631470    5.90926604709258    0.08675834252940
S           3.89748999456647    5.65812060124959   -0.57529591002938
C           6.28318512240144    7.06254835526016    0.00447395240445
C           6.03223055328497    8.27552324507000   -0.59218142824149
C           6.93730054829570    9.40606409798750   -0.62654261277765
C           6.26343135909994   10.48273508733337   -1.35587897905605
C           4.99432080343377   10.03268052798628   -1.75636497042402
C           4.80189890066659    8.64001294810926   -1.29835503086660
O           3.81150264532119    7.95599560354738   -1.48028235673385
C           8.19713095335911    9.48892716893030   -0.09236690285898
C           9.01726615068228   10.63476613199421   -0.17365153824978
C           8.86726070394118    8.46520597425454    0.61030691841102
N           9.48585921918831    7.68891142990016    1.18840304453244
N           9.73497625270877   11.52986700391587   -0.20524287676625
C           6.67056453425925   11.76829702263047   -1.67608078154431
C           5.79330676894913   12.57094437982724   -2.39085898942493
C           4.53525844409326   12.11430106319848   -2.78343001224701
C           4.12041171433849   10.83058369573337   -2.46722149500701
F           3.72090376382586   12.92361625509020   -3.47221125074791
F           6.16838952171504   13.81493341197252   -2.70941915601550
C           0.34583206363471   -3.85298614623785    0.42793595479053
C           1.54081721980796   -4.56577235336668    0.46779536047658
C           1.34384447583461   -5.92017277490070    0.62035947426787
C          -0.00314314204395   -6.29597750909982    0.69511975217128
S          -1.03315924916514   -4.88944710742433    0.56980289632670
C          -0.39745857611599   -7.62809410605294    0.85581832571576
C          -1.65271463530956   -8.18498303512101    0.93039563873665
C          -1.94518534736198   -9.59326651981474    1.10372381661817
C          -3.40190735968976   -9.74371967336912    1.07560927890542
C          -3.98392599950486   -8.47595716543597    0.91021251427394
C          -2.91780765901904   -7.45573899182844    0.82068567494707
O          -3.08441403696430   -6.25770361348444    0.67997739343784
C          -1.05371952614477  -10.61983488983846    1.27886599254715
C          -1.42657828402833  -11.97051726784032    1.44867689011320
C           0.35110922881735  -10.49676076651937    1.32509575552605
N           1.49858540238770  -10.48731232876878    1.37445557280126
N          -1.66131192327596  -13.08505106211908    1.58990018632834
C          -4.21114751574582  -10.86420892398534    1.17807286705262
C          -5.58529604516213  -10.68441594306656    1.11170101352568
C          -6.15282500317375   -9.42089386892083    0.94847463628822
C          -5.35100522333874   -8.29556364000600    0.84574601425544
F          -7.48434718128755   -9.29367421692073    0.88876168036155
F          -6.38270664965153  -11.75427047841731    1.20595832346664
O          -2.49980614718432    3.91137054681134    1.61854532152997
O          -5.40689656599714    1.00658948850995   -0.75774723325478
C          -3.42249399464936    4.97977054469072    1.49207087122782
C          -2.78948697559338    6.21257861957481    2.11761527932047
C          -5.76945600744032   -0.26977894140296   -1.24960085428368
C          -5.37647804722094   -0.47616021312654   -2.70887262728691
O          -2.17491820028308    0.47684473647757   -4.30052142145006
O          -3.24479193432065    4.75051617358220   -2.23857646772379
C          -4.43200304423099    4.95336569991565   -2.98130694054356
C          -5.62566965201391    4.18707826586140   -2.41766244615095
C          -3.05604943382920    0.66072257678053   -5.39432190629690
C          -2.90803789246019   -0.54199887555054   -6.31269373511553
H          -1.92269813648065   -2.17652098525329    0.50523445957128
H          -0.80244084408929    2.06482382630836    1.43893966094714
H          -4.82627143064735    3.10190509237195    0.42625541423860
H          -3.20220447660609   -0.62731717493468   -0.85249757348276
H           1.43383116945250    4.39084617518125   -1.38412102265683
H          -1.11141910600441    4.35321847674935   -0.98800099752098
H          -3.68987477090471    2.66935200236708   -3.94419815960661
H          -0.20846128641539    0.53750066618006   -2.72736111159324
H           5.20162363288155    2.74769758017457    1.15856318544528
H           6.90250755255124    4.70625411221481    1.21771294439993
H           7.24256738368061    6.95296473245114    0.49541222354424
H           7.63041468399394   12.17063483786725   -1.39739240080352
H           3.14903643850748   10.47260302325047   -2.76868816257070
H           2.50327620343804   -4.09095966297954    0.39188617667232
H           2.13749343999099   -6.64414178276504    0.68014108269326
H           0.44100605471717   -8.31049669912740    0.92461846182414
H          -3.82522610637736  -11.86217691550692    1.30438307568165
H          -5.78478639665128   -7.31658133267402    0.71923535416748
H          -3.63547350942871    5.15679487035972    0.42954021339056
H          -4.35991275409003    4.73263796480863    2.00915290888962
H          -1.86133717401297    6.45340213987473    1.60682319077569
H          -3.46841716697778    7.05675651040493    2.03899371941947
H          -2.56978958202846    6.02724918136639    3.16547820213512
H          -5.34581238355229   -1.05769636021339   -0.61657650802182
H          -6.85945186013512   -0.30055464063511   -1.15549053259816
H          -5.70341647374518   -1.45836391337592   -3.03949260889024
H          -4.29958452092086   -0.40097319483336   -2.83583659683509
H          -5.85775643286133    0.27906841697477   -3.32634556571705
H          -4.61615932198896    6.02965149712331   -2.91147963883924
H          -4.27034958390069    4.70571096638282   -4.03732440037938
H          -5.88085328560306    4.56815939023354   -1.43232657128453
H          -6.48400875573907    4.31408154073593   -3.07218849710786
H          -5.40258459698755    3.12760625426380   -2.32152823248815
H          -4.09481644589785    0.73631006247308   -5.04652662440560
H          -2.79608530487207    1.58473502294830   -5.92871648078703
H          -3.16658348412159   -1.45088033506061   -5.77662926746653
H          -3.56463467765449   -0.43440628141818   -7.17118401913421
H          -1.88053754675368   -0.62302867307146   -6.65593715067172
