138
 SCF done       -228.184478246339          0.000452679843
C           0.22734298533666    0.53984643922223    0.46297211399152
C          -0.40088366688636    1.53356752242095    1.17543245974019
C          -1.65516111754511    1.39481032279503    1.92148852942065
C          -1.93467996360433    2.72233188381937    2.50137302947935
C          -0.91109439700172    3.61369307263297    2.13539757435768
C           0.06411940610035    2.89847635548575    1.30839062334913
O          -2.34165614937702    0.39602939975013    2.04923806417283
C           1.19813026431401    3.45435630750035    0.77495870075386
C           2.15236985377270    2.78773982203177   -0.02200433567088
C           1.57975000732964    4.80133344171527    0.95282392833025
N           2.97776289679018    2.32657786999123   -0.67484835158283
N           1.95169004445680    5.88259746782374    1.05425490052763
C          -3.00197002181214    3.11499117716813    3.28600920406738
C          -3.05442089636092    4.43035461669120    3.71961796096004
C          -2.03957621652067    5.30116765981071    3.35288230831588
C          -0.95779761209513    4.92896597580082    2.56556767893085
C          -5.67066971081831  -10.50477100727840    0.14709808899497
C          -6.09082925710800  -11.79931424289618   -0.17288247098872
C          -5.54555248871001  -12.73600652236366   -1.01895070975363
C          -4.33675915812417  -12.56156414427817   -1.82968485152516
C          -4.18176418358516  -13.80612524081280   -2.60630254850516
C          -5.22295096686964  -14.69135187919900   -2.27747437911798
C          -6.08512483071954  -14.05474768369337   -1.27831618180144
O          -3.59730895906728  -11.59369384406631   -1.87071293698280
C          -7.18752645556039  -14.63717790906645   -0.70822678157267
C          -8.02929126630950  -14.04833366652394    0.25858741993975
C          -7.64164361970615  -15.93857817350850   -1.01123681102761
N          -8.76628117012148  -13.64996888630114    1.04480873282962
N          -8.06561766077149  -16.98686162723309   -1.20846802361535
C          -3.20721112907986  -14.13147314606048   -3.53009447151450
C          -3.26922627037744  -15.37120150869398   -4.14652277644117
C          -4.30115661468441  -16.23643846788278   -3.81595463873464
C          -5.29027991713597  -15.93135506684833   -2.89000967807105
C          -6.39634102280344   -9.68230897775040    1.02408802648079
C          -5.82172049685442   -8.44303056312373    1.18510206635174
C          -4.63793771353955   -8.29803070450768    0.45306171642318
S          -4.23530890361333   -9.68701539300805   -0.45641734290320
C          -6.10312428257817   -7.19262927800228    1.97781616517228
C          -4.94889226325200   -6.31169859749817    1.53381251615209
C          -4.09991018015828   -6.98983517100728    0.65398763858149
C          -4.70592171217412   -4.98616712094308    1.87902423313322
C          -3.60549360796667   -4.34866251500834    1.35669188943159
C          -2.71591742554341   -5.01336558554676    0.49107935175921
C          -2.94617981680422   -6.36947681414202    0.12088528327111
C          -1.56618724026266   -4.39065803953524   -0.04833852576501
C          -0.68905847034740   -5.08626895137602   -0.88603685558269
C          -0.92369088136607   -6.41680586875150   -1.21782362126640
C          -2.04577562862340   -7.04150439494162   -0.72768418006174
C          -1.06303071536849   -3.06131426819544    0.09947101817498
C           0.13309961721999   -2.92456337992257   -0.61381032859011
C           0.48279976771119   -4.21664871088892   -1.30478866964418
S          -1.54353408043956   -1.62240260402276    0.88643674757217
C          -0.12549012409256   -0.79666072631443    0.25390883908846
C           0.65890633491984   -1.65651409294848   -0.53160388093623
C          -6.05276056387167   -7.56659007802783    3.44948672691110
C          -7.40439410009807   -6.50201398862184    1.61775734539536
C          -7.98309470519858   -5.60469161800612    2.50686528584115
C          -9.14521284838820   -4.93674477949582    2.17231342427367
C          -9.75878017655088   -5.14320547011661    0.94350409453728
C          -9.16912471041021   -6.03066522158829    0.05372968902024
C          -8.00440000634124   -6.69985116119640    0.38237686145481
C          -4.91541734702364   -7.37040867069093    4.21844361662440
C          -4.89258684434295   -7.76415565954768    5.54473738400988
C          -5.99423523436137   -8.37158509534034    6.13047875054420
C          -7.12625338761613   -8.57679713067395    5.35116283358636
C          -7.15544754776912   -8.18479373102803    4.02740243606546
C          -5.98238384381353   -8.75274025697900    7.58250857806900
C          -6.48651769452980   -7.59198897596472    8.44266082511852
C         -10.99873525673699   -4.38456677735158    0.56840604389202
C         -10.63022843738736   -3.06003930303796   -0.10312373207810
C           0.56491859999557   -3.95355675141097   -2.79645180514035
C           1.74983108373560   -4.86590203926012   -0.77487214002926
C           2.22924707020540   -4.57099561080044    0.49371079696263
C           3.35992154795340   -5.20076946268814    0.97990551668843
C           4.03497152110955   -6.14542671828486    0.21884508594258
C           3.54202223743123   -6.44822017043563   -1.04365591149750
C           2.41407256743512   -5.81959680500901   -1.53575473723582
C           1.71403526817327   -3.37133870327385   -3.31882462220469
C           1.80541622918200   -3.08620953846765   -4.66683970182842
C           0.75126508696577   -3.36680152631775   -5.52768022363798
C          -0.39875670166031   -3.93469444898452   -4.99793353572744
C          -0.49728891336913   -4.21967332703010   -3.64751124002376
C           0.87590488739823   -3.10970284831485   -7.00147451116150
C           1.49009166453952   -4.32346465274947   -7.70232984009699
C           5.23499670122609   -6.85992498140492    0.76938238479657
C           4.80300035156689   -8.10478526880746    1.54725905853791
F          -4.34870073115573  -17.43295285243082   -4.42372532899316
F          -2.10495570153585    6.57241711691357    3.78073986495193
H           1.15066871647217    0.81187655275815   -0.03414969486316
H          -3.77109817780969    2.40564585686367    3.54864646248111
H          -3.86432059242707    4.79087149339187    4.33369000134500
H          -0.20563353220098    5.65977577985206    2.31962165090882
H          -7.00408827722963  -12.08209293581418    0.33679639779244
H          -2.42200134567746  -13.42813844469318   -3.75917663478697
H          -2.53614399592826  -15.67678797686846   -4.87601823713909
H          -6.06273206717596  -16.65314940649150   -2.68354844225381
H          -7.30479988807687  -10.01545838580292    1.49341986658927
H          -5.37621238236950   -4.46709607566966    2.54649142646391
H          -3.40669368238329   -3.31860352085232    1.61200048726872
H          -0.23523527705316   -6.94657465533053   -1.85786341777975
H          -2.24749475122673   -8.07015912058144   -0.98626160328483
H           1.56666411138180   -1.32475007706832   -1.00313696162553
H          -7.52973086539950   -5.43904232946127    3.47358269846988
H          -9.58530818805159   -4.24738087558011    2.87873306944062
H          -9.62792527293412   -6.20377965939291   -0.90931778215671
H          -7.56334433850307   -7.38384261056391   -0.32816041533843
H          -4.04137285412211   -6.90640530005852    3.78517134535109
H          -3.99989801320906   -7.59912470904550    6.13120517449551
H          -7.99350176490882   -9.05323935480420    5.78522056699499
H          -8.04552558687355   -8.34904617771892    3.43754001263068
H          -6.62226775578149   -9.62277060466313    7.74202885749429
H          -4.96743427259157   -9.01338398662423    7.88906934096340
H          -7.50329721219113   -7.32672276050480    8.16156415930833
H          -6.47721685411235   -7.86607135125093    9.49493119161414
H          -5.85445353220316   -6.71731775581701    8.30557418551903
H         -11.60475879309802   -4.97966185552295   -0.11747108952536
H         -11.59281368788685   -4.18152457660629    1.46167540451519
H         -10.04891451264519   -3.24182931870506   -1.00435019993500
H         -11.52717146481451   -2.50768699619555   -0.37310389827267
H         -10.03384095142902   -2.44779214455592    0.56967816717940
H           1.72102477940986   -3.84149190765141    1.10733498150570
H           3.72443498473661   -4.95141000395380    1.96625062455964
H           4.04964029350342   -7.18322596899358   -1.65195547814314
H           2.05568145063281   -6.06175344448204   -2.52581672968085
H           2.54602707659811   -3.15242278847026   -2.66523327395627
H           2.70735510232115   -2.63676317000226   -5.05682591193876
H          -1.23315590652816   -4.15515507478075   -5.64852029166318
H          -1.40673496904459   -4.65456368735831   -3.25922106218508
H          -0.10875717824324   -2.90791742830659   -7.42775149190574
H           1.50896144356421   -2.23691779057794   -7.17324594907347
H           0.86679549399664   -5.20228742576359   -7.55189692804980
H           1.58142556362156   -4.14074002050436   -8.77037746537401
H           2.47877251737767   -4.53234084111136   -7.29965413836260
H           5.89667212128651   -7.15696255434615   -0.04661143575164
H           5.78935115938548   -6.19479117694328    1.43451824180304
H           4.25750438194471   -8.78608340355394    0.89803782576614
H           5.67078816382308   -8.62446539587476    1.94641584013777
H           4.15271755906013   -7.82751266932704    2.37399781286666
