120
 SCF done       -192.062039857654          0.000722910908
C         -27.61237445539326   28.94708200756287  -20.88314501526422
C         -27.51937145079046   30.21767810192693  -20.42353039052481
C         -15.59859639127085   26.60066605776324  -13.08734550614472
S         -16.15932900682035   28.23000380833747  -12.71517126341888
C         -17.36241815455868   28.11614874185155  -13.94059758842297
C         -17.31771986637808   26.86748940332289  -14.59894255152021
C         -16.31900689904522   26.02213630422546  -14.11561926180222
C         -18.40794621540406   28.83541010483135  -14.51637703376116
C         -18.97066141541671   28.00692430099068  -15.51076249984272
N         -18.28774184088816   26.82044573154815  -15.56595986889232
S         -19.21453877664724   30.35461843070961  -14.42644116921815
C         -20.31446228520550   29.86698262377563  -15.71334366606248
C         -20.04929606454974   28.59344140362906  -16.17584738345833
C         -24.66058192617934   31.52981688842277  -18.09218348972776
C         -18.61754858101498   25.68620834431990  -16.38943828792565
C         -19.64644079180477   24.78088837500532  -15.71511913264855
C         -25.59505612346883   32.53884991623506  -18.28861917177149
C         -26.64308555273580   32.12936041049827  -19.11847099262858
C         -26.56231203259150   30.82835829875282  -19.57552169552470
S         -25.11237954654507   30.08853517112064  -18.95819005188561
C          -9.68485036213456   18.72151026380752  -12.64120332673266
C         -10.46296633755556   19.83519507395707  -12.90056413742743
C         -10.84823305918413   20.95818881190612  -12.15021045009667
S         -12.00474990804675   22.02966207382148  -12.92858479537423
C         -11.96355335669280   23.15376783598756  -11.60896271949682
C         -11.07674032206489   22.72090917955570  -10.61909632483561
C         -10.47655920776548   21.50539697605815  -10.93115949353279
C         -10.81002859318059   23.40370353343312   -9.31324223652827
C         -11.99081482345212   23.24207881605556   -8.35413720004304
C         -12.79130601271071   24.30614781039156  -11.67938869503956
C         -12.82979645560442   25.44461613138350  -10.90257511676416
C         -13.78814583295134   26.38974173720594  -11.28739778827292
C         -14.52616452714575   25.98251126389082  -12.38957608351848
S         -13.99724168732091   24.41138468709754  -12.93709951181861
C         -13.92223446854940   27.69558040552437  -10.56993197775735
C         -13.09393918101284   28.78369232686908  -11.25603722679510
C         -25.57260541297984   33.90329618314374  -17.67285335403413
C         -26.03194482185994   33.85503476694207  -16.21400161909379
C         -23.46419332904895   31.49026203262881  -17.31967288630145
C         -22.83185552844039   32.45896042447952  -16.57478996220055
C         -21.66031784115816   32.03557217004652  -15.92846806553113
C         -21.37145275233860   30.70387106855464  -16.16881627390152
S         -22.57060137503712   29.99531171974848  -17.22349729799723
C         -20.87446420170459   32.96888114212618  -15.06272887331267
C         -21.38300538848957   32.93751838976756  -13.62017073817045
C          -9.34503771993044   17.84913747966778  -13.73104599748723
C          -8.57919191883143   16.74027299747179  -13.50530148880670
C          -8.09756507612625   16.36036043035124  -12.17717405228913
N          -8.50262737854550   17.19677080202575  -11.15000405632572
C          -9.23991568781514   18.35711303812745  -11.28522858387172
C         -28.73011978469733   28.67479721067405  -21.79623179360981
N         -28.87077097870276   27.36172996282996  -22.26350959071914
C         -28.23299396825215   26.26629526649220  -21.75293062337411
C         -27.44942792338293   26.52914669974220  -20.46929587659181
C         -26.65325208435670   27.83663924402156  -20.57472968411608
O          -9.52196280272995   18.99589503526629  -10.28649901165672
C          -8.07493784039957   16.83204530393512   -9.80316630310165
C          -6.73752367525960   17.47374996561262   -9.45774894604857
O          -7.40416553697117   15.38851697811855  -11.95874415956217
C          -8.19132819553777   15.88069358713425  -14.55472428589563
C          -9.78242730830180   18.15803122984645  -15.13172873216481
C         -25.57054918670023   27.73029439244207  -21.65220239471603
C         -28.40286959813931   26.61821455702381  -19.38923800718256
O         -28.31157536899155   25.16858833992011  -22.24719821102346
C         -29.77601905914874   27.14847466564716  -23.38926971892527
C         -29.04332460404152   27.30465797256206  -24.71534295752995
O         -29.48878428915729   29.53614196352306  -22.19000846151005
N          -7.87736430905265   15.18393405004160  -15.41034672429063
N         -29.15886424786326   26.71442062692935  -18.53766466797586
H         -28.30936021557378   30.88683295006176  -20.74837394271117
H         -16.11477776607414   25.02936416856043  -14.47453587104286
H         -20.62424891741058   28.13288133430997  -16.95895569622533
H         -19.00975957676973   26.05782340039101  -17.34002069090860
H         -17.69756212352114   25.12941536181345  -16.58602513735176
H         -20.56301049038060   25.33238386883293  -15.51923453546509
H         -19.87694237415898   23.93594286725357  -16.35781308720858
H         -19.25828550518350   24.40679891230403  -14.77065085803460
H         -27.46307278374573   32.77414001878211  -19.38292836408648
H         -10.86841166064573   19.87816953033291  -13.90400577034517
H          -9.78042683820042   21.01509470639531  -10.27800608041566
H          -9.92574279601105   22.94810725258917   -8.86510650660439
H         -10.59110987084155   24.46085168816663   -9.47311217868890
H         -12.16128986329335   22.18735041057149   -8.15279441443615
H         -11.78250089862434   23.74471294545612   -7.41274608077874
H         -12.89964517377651   23.66083697839636   -8.77988611224438
H         -12.17363311393939   25.61839620398154  -10.07134136629239
H         -14.96800802850579   28.00277006572702  -10.52878282163688
H         -13.56785139461405   27.56840556458883   -9.54495331995451
H         -13.42956108069019   28.93205635647939  -12.27911953961228
H         -13.19390736567696   29.72409227515686  -10.72078413324208
H         -12.04316921152342   28.50276675219284  -11.27524656554219
H         -24.57231806233633   34.33337948697618  -17.74262345178802
H         -26.24843206073668   34.54836495630323  -18.23727018575309
H         -25.40040049544584   33.18908774342869  -15.63086525598081
H         -25.99503048048220   34.84834593908975  -15.77315266010588
H         -27.05434624110093   33.48902667953509  -16.15702381309521
H         -23.18503401023190   33.46799315852215  -16.48356427949961
H         -19.81583183808065   32.70757608929450  -15.08312942363034
H         -20.97994745735972   33.98189520079808  -15.45736141765070
H         -21.28699643969182   31.93814410808639  -13.20346344248344
H         -20.80767263801182   33.62434864805011  -13.00509022529871
H         -22.43054581163832   33.22850688276819  -13.58177993386304
H         -26.79205053195846   25.67150795012708  -20.28993971678651
H         -26.17175789133379   28.02295660299949  -19.60948805545023
H          -8.84971458151082   17.16696173857554   -9.11108498874797
H          -7.98971029937684   15.74433023750883   -9.77695569693333
H          -6.81772878149737   18.55768802496037   -9.50144721361599
H          -6.44150521577706   17.18431093873071   -8.45337498188533
H          -5.97305790424953   17.14318858353322  -10.15701898716285
H          -9.42212122962938   19.13748905122766  -15.44327488826460
H          -9.38935310048802   17.41328178281778  -15.81905292873740
H         -10.86964755567025   18.14847994275681  -15.20626605177232
H         -25.01183998733791   28.66144448511770  -21.70427089939545
H         -24.87874864635526   26.92470602767414  -21.41711597034090
H         -26.01225426274796   27.53578286131948  -22.62746870877533
H         -30.18451321032270   26.14088550012678  -23.29595157403740
H         -30.57506258822719   27.88675597337883  -23.30405602797132
H         -28.24501600716076   26.56989726749785  -24.79386279167196
H         -29.73802412488121   27.15216329792584  -25.53621648036674
H         -28.62075078942529   28.30387617755188  -24.79709037023678
