224
 SCF done       -365.855519991954          0.000344321787
C           4.88895713203475    0.00167647139744    1.99883855687549
C           4.07815907277619   -0.84742846421806    1.20851848601945
C           6.17641510264966   -0.61021857548499    2.08195573409040
C           6.19509876310278   -1.80590607272392    1.38092625065441
C           4.84849405549038   -2.07969743115084    0.76729955274515
C           5.03993254072334   -2.18637896700255   -0.73572255573343
C           4.16354831116261   -3.31161782220990    1.32981550320440
C           5.52911193726231   -3.37375249861187   -1.26772028192930
C           5.76621716475215   -3.48883114588457   -2.62325220868399
C           5.52423543773863   -2.42425884990376   -3.48253373308872
C           5.04437079650565   -1.23861555525775   -2.94401889906084
C           4.81208777167754   -1.11438449706765   -1.58576480498465
C           3.10627422117683   -3.89042636694577    0.63932014602591
C           2.45331734440725   -4.99378939988439    1.15396471770538
C           2.83689360717361   -5.54837758216525    2.36822788176047
C           3.88598573254222   -4.95851381425296    3.05945979401201
C           4.54024591228827   -3.85164369575353    2.55082405402323
C           5.72866207188005   -2.56919574329935   -4.96304217531519
C           4.44945759455964   -3.07983193720455   -5.62966569621003
C           2.10287847962331   -6.72550966628508    2.94266400210664
C           0.93919291401805   -6.25473771665907    3.81741952022444
S           7.69792798178216   -0.17520971229186    2.78432465737236
C           8.39717359424650   -1.62112613525927    2.10072741855590
C           7.45853158659345   -2.38920525780913    1.37347756754220
C           4.42179799876331    1.21939180868421    2.49001225941874
C           3.14336746885481    1.58646086200866    2.14522002845632
C           2.32812556453742    0.73079104662858    1.36579084213657
C           2.78168175059912   -0.50231129638122    0.90624747816614
C           2.41699262054413    2.88395479229384    2.46337173741337
C           1.12593760957338    2.67514693558645    1.71702235402898
C           1.10528374679447    1.42753295336346    1.12064176665094
C           2.24486495262867    2.98025287909278    3.96736577413800
C           3.07800989182185    4.12284754315655    1.88794991102187
C           0.00878007958072    3.43343846629654    1.36769023006118
C          -0.86525584449717    2.73231779177178    0.51436947253636
S          -0.30388013900748    1.12846633150335    0.15721618796776
S          -0.50261207595448    5.07000799821696    1.64246201586581
C          -1.84552345946027    4.81116582657905    0.57655288700576
C          -1.91799686107116    3.52782435026160    0.06608885146192
C          -2.84207559680924    5.64444851770959   -0.01952472648265
C          -3.58098067964260    4.83101304373995   -0.91281569913824
C          -3.09950744330208    3.39120889159791   -0.85660211968423
C          -4.08316380790424    2.45051356264286   -0.17965957314412
C          -2.74091399378774    2.91812941931897   -2.25024564915717
C          -3.07531285071181    7.01219483422454    0.09203864014400
C          -4.02051043583056    7.55903087727625   -0.74448533644963
C          -4.73990721365817    6.74949942487716   -1.65530929260399
C          -4.53768572018549    5.37304075185305   -1.73595021018269
C          -4.42208811290367    9.01799221187156   -0.87913597955204
C          -5.41310289445345    8.93414664366608   -2.00866251394161
C          -5.57322783804900    7.61976070119154   -2.42172598115536
C          -5.03506350198662    9.47177150151201    0.43346542041169
C          -3.29795660088075    9.93815076040358   -1.32032933947044
C          -6.14541411630948    9.81403070484349   -2.79699996248832
C          -6.87704924091845    9.14922675393494   -3.80837474691602
S          -6.64585161341249    7.42166981698556   -3.76379222484213
C           3.27724673770646    3.48348042171786    4.74932756065572
C           3.15278420834802    3.53865931458475    6.12388721413856
C           1.99926185821932    3.09009336756841    6.75483305140110
C           0.97283506759960    2.58492606529561    5.96917443673664
C           1.09368756262336    2.52422701872134    4.59282742731317
C           3.99615675241919    4.04669974894825    0.85073793541255
C           4.52941802222813    5.19959584425938    0.30296183443986
C           4.14890127507394    6.45269955226147    0.76288870123261
C           3.21918376619020    6.52290271121581    1.79264706846145
C           2.68763286770254    5.37513763480184    2.34734038968360
C          -5.19567901353510    2.91469728759993    0.50595095064119
C          -6.04092478065498    2.02659811665263    1.14736090802626
C          -5.79141210084560    0.66156138227950    1.13140235580789
C          -4.66940036368212    0.20406493457886    0.45127096519797
C          -3.82390246347996    1.08495533750726   -0.19368065754355
C          -1.46513422759798    3.10541058843614   -2.76310329628633
C          -1.15650750615555    2.68877698595897   -4.04469004196093
C          -2.11474050257330    2.09040985203572   -4.85121822503096
C          -3.39557102787115    1.92392573776757   -4.34063405745485
C          -3.70766757085127    2.33338968304061   -3.05843035784254
C          -4.21421119729681    9.92284053584970    1.45947142279770
C          -4.75448590105155   10.30959103505842    2.67059533432229
C          -6.12456018884677   10.25233828888040    2.89235722275657
C          -6.93885955495896    9.79183358094919    1.86711064009962
C          -6.40283902512548    9.40001112319443    0.65409253714528
C          -2.12539902630490    9.45091734686050   -1.87814448563110
C          -1.14543811178632   10.32443643461626   -2.31534543884282
C          -1.31572285623309   11.69839483409187   -2.21857263042971
C          -2.50105898324079   12.18016121380237   -1.67683256874243
C          -3.48027171453100   11.31345631770060   -1.23310887660466
C           1.84734270824812    3.19822252689056    8.24460575714296
C           1.24919126672541    4.55477268680545    8.62303879038238
C           4.76138354973786    7.70074812985049    0.19578736810518
C           6.00928814755833    8.09083901921001    0.99046456845753
C          -6.73626265774549   -0.30141749581933    1.79048549009500
C          -7.81586177639096   -0.74995918104079    0.80339280847051
C          -1.76205723716562    1.58830219020743   -6.22146505065799
C          -1.27195965884166    0.14067634249243   -6.14707520310570
C          -6.71415483973736   10.72835424872928    4.18824421200185
C          -7.03355179081088   12.22273080964075    4.10953784942166
C          -0.27073573545003   12.64352306083807   -2.73701937746096
C          -0.56184003545125   13.01288525469336   -4.19295069904488
C          10.94620593788574   -4.03081610822955    1.18778155508336
C          11.24127038104604   -5.16382131264267    0.46612186853046
C          10.29078553274486   -5.94904317452588   -0.32620522151177
C          11.07966633346694   -7.03217889954430   -0.94854928944286
C          12.42222856725833   -6.91864416256627   -0.54970941554181
C          12.55333905921317   -5.76479584367624    0.34096728749541
O           9.09437698133623   -5.76801962502256   -0.45984151382335
C          13.72318881552103   -5.35774629913881    0.93065628554288
C          13.87567155470689   -4.25470472139918    1.79631719952520
C          14.96541682726349   -6.00203213705578    0.75040089801092
N          14.09283324160768   -3.37918666878655    2.50804258968486
N          16.00714659393030   -6.47360455706007    0.64820650252947
C          10.65056839407703   -8.03181674716425   -1.79622278413171
C          11.58763111236091   -8.94586273141599   -2.26210232083454
C          12.92632147158578   -8.84204663222815   -1.87187375628702
C          13.35311655895543   -7.83199101325657   -1.01553823340500
Cl         11.09610503683003  -10.20551810112447   -3.32121045580182
Cl         14.07570363524755   -9.97761742473961   -2.45514065421412
C          -7.90197126642377   12.52168242644896   -4.86053533075119
C          -8.69264891053060   12.78036418409603   -5.95455154481644
C          -9.35528854823791   11.81979924779462   -6.85875425486551
C         -10.08337915465614   12.64181169632434   -7.84959069511256
C          -9.88425478806847   14.00366124442898   -7.57532239321765
C          -9.01702878254870   14.12351391448960   -6.40403106233234
O          -9.34425265962917   10.60584263334708   -6.83393975837953
C          -8.59249786060697   15.31553063229019   -5.87380906919455
C          -7.73267384194515   15.49490061191457   -4.76923402705638
C          -8.95896759867356   16.58071250992564   -6.38136600321796
N          -7.03774762645451   15.75445398315196   -3.89146793716625
N          -9.21137805931222   17.64390399322576   -6.73320957819438
C         -10.85735319534891   12.21306079331330   -8.90782011647635
C         -11.45139520827536   13.17165331468267   -9.71870043832931
C         -11.26036583072032   14.53161270851440   -9.45425173538747
C         -10.47910313857254   14.95740104744568   -8.38540955064522
Cl        -12.00004320836621   15.70889116987425  -10.46339059304696
Cl        -12.42123741881200   12.68225637239304  -11.04891391395403
S           8.17393540352530   -3.78849115902071    0.67499399527880
C           9.73885907590860   -3.34454162228715    1.35421603234315
C           9.66582372855928   -2.15860837902299    2.09523321195486
S          -6.37370241251000   11.51139190523496   -2.88679270072264
C          -7.43392430349384   11.32569044991494   -4.29822856405515
C          -7.59452034439051    9.98835437903483   -4.64174808014000
H           5.72201164281843   -4.21404834619357   -0.61736092560634
H           6.15065056824335   -4.41843247907757   -3.01645556256831
H           4.85444034018372   -0.39571614768100   -3.59362305135835
H           4.44866631188249   -0.17662840204952   -1.19132461619630
H           2.80326588610583   -3.48501861285366   -0.31515676756804
H           1.63676561991357   -5.43546026718396    0.60047505877834
H           4.19985983988301   -5.37219223616305    4.00725665916856
H           5.35294229616949   -3.41129025026027    3.10991773750338
H           5.99990021055938   -1.60448550829063   -5.39682596653388
H           6.54076325142522   -3.27241530010260   -5.15699601298327
H           3.62956364908194   -2.38621402620710   -5.45614281451070
H           4.59440322845823   -3.18534145959249   -6.70230989064976
H           4.17067169442098   -4.04787795638892   -5.21949902994078
H           1.71621779925684   -7.35078167558624    2.13544631323922
H           2.78476019337137   -7.32852411173296    3.54544812511036
H           0.24089283318318   -5.66179789805904    3.23090713754220
H           0.40750230449169   -7.10668528085633    4.23475677295983
H           1.30618207743955   -5.63881784796551    4.63547945355494
H           5.06056671440546    1.85508992896203    3.08324553765442
H           2.14647054363258   -1.13538733640466    0.30639205790179
H          -2.50480668905369    7.61487569155425    0.78144209313216
H          -5.09349284088681    4.77204363136685   -2.43914550307882
H           4.17843527490962    3.84757347494713    4.27760166784790
H           3.96496380563440    3.93462524816108    6.71683734359717
H           0.06640681630246    2.22997615389416    6.43877906383771
H           0.28241008660524    2.12004914438121    4.00473364573673
H           4.29984591172620    3.08346348131668    0.46718795278131
H           5.24848873134601    5.12186118891159   -0.50028557453354
H           2.90264369779397    7.48790368243161    2.16167591820733
H           1.96591230998210    5.44974790036226    3.14792584374721
H          -5.40813168176967    3.97320214375022    0.54114872078091
H          -6.90627206008466    2.40459918182759    1.67310189013878
H          -4.45250080484912   -0.85435769188812    0.42998601829385
H          -2.95640934985698    0.71170818303099   -0.71881366170777
H          -0.70393416256866    3.57853199712961   -2.15949182916153
H          -0.15499730578133    2.83425574449664   -4.42410069612063
H          -4.15913272352337    1.46776027930625   -4.95457898520066
H          -4.70790743969368    2.18656702815955   -2.67679515501901
H          -3.14715053879245    9.98633422355371    1.30333898554026
H          -4.10168545154039   10.66193086365652    3.45651631176957
H          -8.00753145016983    9.73676001299772    2.01828918734141
H          -7.05897399719619    9.03961257551767   -0.12497655325701
H          -1.97087387909716    8.38579413087895   -1.97152750131185
H          -0.23365547101636    9.92792264646980   -2.73930366996042
H          -2.65988256805713   13.24588315011090   -1.60022741388586
H          -4.39240430231643   11.70640315658341   -0.80773234223787
H           1.19432292553876    2.40270339913772    8.60908616645131
H           2.82158414415180    3.08814158217516    8.72508790510602
H           0.27170563584331    4.67867990269320    8.16215338038791
H           1.13770981178628    4.63425526463051    9.70185242767718
H           1.89343916337033    5.36115526193230    8.27964416665518
H           5.03622138162904    7.53792571991419   -0.84832454342170
H           4.03889220718556    8.51845595992413    0.23638969378916
H           6.74669323336207    7.29211218110348    0.95247896536490
H           6.45453396572379    8.99466512085699    0.58124235691491
H           5.75320963350566    8.27036916339312    2.03228357934353
H          -6.18654642292688   -1.17600744307005    2.14409418953023
H          -7.21104051947901    0.17524609454433    2.65045051812268
H          -7.36272357778406   -1.23961042961153   -0.05573971351866
H          -8.50133671512525   -1.44715564914317    1.27945902228169
H          -8.38314530003461    0.10754177696049    0.44835081459163
H          -2.63747495585223    1.63894289173415   -6.87181126787828
H          -0.97754601475140    2.21211334195727   -6.65459883867121
H          -2.04600561179641   -0.49921074519325   -5.72926945996466
H          -1.01494004589134   -0.22619299210729   -7.13801791027640
H          -0.39223577459399    0.07156901200631   -5.51102816530222
H          -7.63051308791623   10.17536048272516    4.40424346112151
H          -6.00865296548630   10.55338182536090    5.00298857440342
H          -7.74399754593551   12.41596378402058    3.30894316744362
H          -7.46237018809642   12.57039666154508    5.04643684785380
H          -6.12928836648480   12.79259531738725    3.90803964813190
H          -0.26067584794367   13.55207064432313   -2.13173256940052
H           0.71493091760896   12.17805174791334   -2.67324810883300
H          -1.53351961512706   13.49467701984114   -4.27356619548561
H           0.19646971082241   13.69406558682893   -4.57174990914056
H          -0.56997611186551   12.12042318503308   -4.81499917578072
H          11.77186513354144   -3.56267489890746    1.70991940711797
H           9.61455036797566   -8.09921798919522   -2.08814084918146
H          14.39332917521858   -7.78617178999152   -0.73863455685215
H          -7.54861273815912   13.39478969655028   -4.32503471821931
H         -10.99389355140251   11.16017549295242   -9.09769394334318
H         -10.35797850743338   16.01439701682597   -8.21637552150954
H          10.52084864313855   -1.72871828671413    2.58537380386380
H          -8.20324829508000    9.66918502498620   -5.46729487628045
