97
 SCF done       -190.244243181403          0.000536920529
C           3.53789167309433   -3.07486649883256   -3.11504704169982
O           2.80285730219552   -3.85265725949683   -2.51801398544829
C           3.98887809372809   -3.20393426828187   -4.51135149667631
C           3.68456092765611   -4.18201853618225   -5.43529340558463
C           4.23186247534926   -4.07651316162731   -6.70833484403719
C           5.06782684149843   -3.00196943952328   -7.02945443295726
C           5.37272435056817   -2.01892262089224   -6.09237896601337
C           4.82938252586072   -2.11983647411832   -4.82345460609140
C           4.95123068427655   -1.26357962090006   -3.64244431232764
C           5.72259880929852   -0.13285420292185   -3.56472690940035
C           5.86764352706023    0.68962973036412   -2.42772754256310
N           6.04062193145929    1.40906013559802   -1.54876097098481
C           6.50229481882023    0.36721219605612   -4.62968779256668
N           7.15950107578173    0.82723894584969   -5.45034680703884
C           4.12974442236910   -1.85009626797135   -2.60208416592563
C           3.91868997426315   -1.31564727273534   -1.34914777159907
C           3.15550810062126   -1.76463387586047   -0.26999530719919
Se          2.13644235528092   -3.37432922599245   -0.19287985820432
C           1.67075324969500   -2.87340161749029    1.54186710336726
C           2.25617174924446   -1.63916587108868    1.88656042078910
C           3.06165755572877   -1.03429785545784    0.93092985193128
C           3.77888344161151    0.24472111579714    1.22312662773947
C           5.20473030233776   -0.03217268045934    1.70867830604500
S           1.81849602644870   -1.06662024312812    3.48761509797311
C           0.83063574348872   -2.46651190168991    3.68207440395973
C           0.86898229676526   -3.34229386777416    2.58861277818256
N           0.03327992434402   -4.40545524156886    2.81609329189211
C          -0.36407483912071   -5.26748272210250    1.72395680347983
C           0.71942966528138   -6.26921865022351    1.33246032718072
C          -0.56467191835114   -4.21345066162403    4.04583973965089
C          -0.09953325676543   -2.98197053758231    4.59495920200645
C          -0.66337721473267   -2.44329569431694    5.77020808059603
N          -0.35025885959556   -1.32758635679766    6.41176551905407
S          -1.37199490304354   -1.14464652182490    7.65149527211187
N          -2.25933896839061   -2.47094667122967    7.42280868224639
C          -1.78452006546841   -3.11795202044126    6.36572193778048
C          -2.20240393245833   -4.34816235891515    5.83630540913695
C          -1.52545395803688   -4.95966950273798    4.77162202902873
N          -1.99715933338175   -6.26548558742456    4.58786582801921
C          -1.25460622010082   -7.36017781115667    3.99514998298125
C          -1.10208816444773   -8.52377066512413    4.96870062595971
C          -3.03903747374344   -6.46647067563416    5.42191112961312
C          -3.18556665007333   -5.28889182071795    6.33993420866001
S          -5.00575115584536   -5.10056367251013    6.41738053375746
C          -4.90268796635271   -6.94614189675237    6.53855921458346
C          -3.93208148474520   -7.44866372555151    5.75954459671132
Se         -2.75009567700156   -5.92127555421244    8.34710227225464
C          -4.52897137849056   -6.48285659570265    8.80957081197853
C          -5.29716643088156   -7.43970903121961    7.88198358394760
C          -4.83755840713032   -8.89492905044227    8.08669947226847
C          -5.14757554356424   -9.42687483192965    9.47929632634721
C          -5.08778126375511   -5.99089796885175    9.92923004295123
C          -6.45989190011899   -6.30348140109818   10.19936937090375
C          -7.33859198576587   -5.96662718178473   11.28668964594425
C          -7.00537812740240   -5.34288041085882   12.45890963828457
C          -7.92988360575683   -5.02983368323174   13.47607089912748
N          -8.64258102315436   -4.75308754229430   14.33194411077519
C          -5.68879644742193   -4.95271447762397   12.78447305374254
N          -4.63287866691345   -4.63025701211307   13.09663860380632
C          -8.67860483898021   -6.43118280204263   10.89525901772444
C          -9.89560222099455   -6.38197690045370   11.53769528908862
C         -11.01403470611548   -6.91677613363626   10.89229546878891
C         -10.90995375957530   -7.49215972444640    9.62696679227102
C          -9.68094641424141   -7.54931181646368    8.97268181624049
C          -8.58123688570218   -7.01861479638127    9.61192020132901
C          -7.19049413891674   -6.93438492764761    9.20887530307161
O          -6.72736563001836   -7.38074530329145    8.06228986731083
Cl        -12.30261908528723   -8.14051598917152    8.85747525303365
Cl          3.87617838346465   -5.27106540006381   -7.88932877019967
Cl          5.73501460905878   -2.88164390847771   -8.60666750500294
Cl        -12.53608830255387   -6.85538059561262   11.68569649502556
H           3.03776722292984   -5.00474900853902   -5.17504494421168
H           6.01954130002134   -1.20608700970933   -6.37872354812053
H           4.42122539602956   -0.37662151771759   -1.15836980952199
H           3.81423551973685    0.89153118725777    0.34551543621225
H           3.23296937361792    0.77024510813737    2.00965663955930
H           5.77761638707595   -0.55611771251929    0.94717084535980
H           5.70523698438435    0.90609058092866    1.92881151688725
H           5.18585426779058   -0.63966539121708    2.61052610694437
H          -1.29422482483218   -5.76835447461994    1.99104602763930
H          -0.56282823007161   -4.62607466950341    0.85457296354467
H           1.03148923186759   -6.88521568003907    2.17156471591156
H           0.34233322426438   -6.91655397201230    0.54614683876371
H           1.59653809081802   -5.74719421487470    0.95068799344329
H          -1.76391758511167   -7.71022654621257    3.09057763930501
H          -0.26778121821231   -6.97942668149180    3.73767555092271
H          -2.07285826179582   -8.94948508011611    5.20857278253088
H          -0.48046817557664   -9.29143173290037    4.51660796975733
H          -0.63406461728444   -8.18737078387949    5.89151056082959
H          -5.32670836044208   -9.50996546667505    7.32992188810753
H          -3.76099159210886   -8.92265499971683    7.90969065769298
H          -6.22017156867317   -9.44592446390408    9.66294663406198
H          -4.76975875871108  -10.44161709374505    9.57326874915739
H          -4.67228705768190   -8.81305036342436   10.24222426156779
H          -4.52875981539956   -5.33942761915720   10.58300649322800
H         -10.01347736065412   -5.94512051768342   12.51599780201803
H          -9.60016960684063   -7.99359540700267    7.99388437799087
