142
 SCF done       -245.715434607557          0.000711742569
C          13.16263043693359   -6.50277368183074   -1.17161523021697
C          14.54329173902224   -6.61562566163016   -1.25632401854410
C          15.36024556826282   -5.50205400903811   -1.44533264586476
C          14.81058250619850   -4.23475351802306   -1.55610842784032
C          13.43772012241456   -4.12460780430604   -1.47136383082701
C          12.60512554258187   -5.23906772776074   -1.28046439341475
C          12.60789975562821   -2.90315902733555   -1.55330269863348
C          11.22445474867312   -3.34401543090215   -1.38856580168783
C          11.21366279815639   -4.78118319345568   -1.23036033761738
C          10.11064443556294   -2.52866708222592   -1.37253380208106
C           9.99646865238910   -1.14502387758635   -1.48433866947132
C           8.75128292048062   -0.48648625325594   -1.40676266598818
C           8.85992353233030    0.87529055086519   -1.51876977624226
C          10.19809341374329    1.28489976815373   -1.68336072529051
S          11.31789401728836   -0.00043598650818   -1.70747461495508
C           7.93421151543951    2.07384554215472   -1.47574344019901
C           8.93069539989100    3.19280185455700   -1.68554820412137
C          10.23111587318141    2.68615528462909   -1.78369680635367
C           8.90256468792257    4.57263096328915   -1.82162578966216
C          10.16989657394643    5.11710198424072   -2.00663057302701
S          11.41984696744015    3.89943931002464   -2.03730490508342
C          10.53067003888981    6.49579035670133   -2.12401743068972
C           7.28746535168318    2.12376685116284   -0.07414294133591
C           6.87759333024439    2.02567360386746   -2.59031277708997
C           7.49200443205403    1.84515728925591   -3.97355968711261
C           6.46903484715594    3.37481168615804    0.21495394424839
O          13.02640323371834   -1.77178123599283   -1.72871505872879
F          15.10047425993230   -7.82833232415147   -1.15215789350349
F          16.68913723278562   -5.65685101532662   -1.52020506273519
C          10.12652902204367   -5.60186985579688   -1.06144588714850
C          10.20875651021601   -7.00246876694869   -0.91542358358799
C           8.77855606737026   -5.19136336983876   -1.00977260511741
N           7.65662012115736   -4.94841531265884   -0.95691981343762
N          10.20239297509693   -8.14340079710191   -0.78792253893894
C          11.86713257351237   10.58571728682919   -2.23044946907206
S          13.56301136366159   10.90710856011956   -2.47959958653759
C          13.26099890449328   12.59189038242879   -2.30145287796458
C          11.91181679786135   12.89155506908271   -2.08616800769282
C          11.12961329089200   11.74809426579614   -2.03485165743691
C          14.00323533426584   13.78475437445652   -2.26494140053453
C          13.13493075444643   14.86678569676631   -2.02287759395940
C          11.70572207895871   14.38045042420246   -1.90603370272320
S          15.63104845119471   14.26054025756505   -2.41986382413440
C          15.17085756541257   15.95187663238635   -2.15711882968675
C          13.78877692191577   16.07737135097656   -1.98081043550015
C          16.21828020399777   16.87604512755854   -2.16736645525146
C          16.25682333996191   18.23252559482515   -1.92455834823846
C          17.47408246888817   19.01675336589887   -2.00315422534360
C          17.16173831073765   20.37286842256170   -1.54860961391378
C          15.79408871766256   20.43717036552624   -1.24347985852715
C          15.16639454500293   19.11694906244940   -1.48095906121649
C          17.95541867808524   21.49836212134792   -1.39142378282832
C          17.35402212584501   22.66079986209776   -0.93171941636826
C          15.99297779853405   22.71445151573678   -0.63366344911284
C          15.19350726112959   21.59362275249412   -0.78808369732683
F          15.45408321671268   23.85899289871242   -0.19262667524312
F          18.10509328249515   23.75719615395521   -0.76996161419429
O          13.98801071214234   18.86925368577390   -1.31442191937129
C          18.70864220888069   18.61456652164702   -2.44763994164723
C          19.84310055846209   19.45273907965799   -2.49134459973994
C          19.05345560868283   17.33909895803093   -2.94293968159208
C          10.88346989834843   14.99997747767086   -3.05355600027927
C          11.11631423585771   14.63726697768587   -0.50495566570668
C          10.87789398704821   16.10197139255962   -0.16305857836887
C           9.43561166759661   14.53441561542186   -3.12696698974306
N          20.80859085270768   20.07153285450220   -2.54555990717771
N          19.43293158151876   16.34410129456996   -3.37503030440134
C           9.64464644556256    7.55875839000145   -1.97448069810585
C          10.06384419137827    8.88019176565052   -2.02307653310872
C          11.39606811942711    9.23619534977143   -2.21963276236895
C          12.32436219153939    8.17409660731223   -2.40886045376216
C          11.89382345392393    6.82925493500716   -2.36159108524628
N          13.61091931946694    8.44832725005847   -2.66008650852314
C          14.47749817022162    7.47678189420377   -2.83774182040202
C          14.05647005514957    6.11388789050669   -2.70226402493888
N          12.78789591733512    5.84606600353283   -2.49969490114847
C          14.95345203745585    4.95739441144187   -2.73220247361477
C          15.84036125279637    7.85310680616649   -3.21483733823477
C          16.44660239026395    8.95737949343663   -2.61970738346237
C          17.72198936816408    9.33527944979072   -2.98697698523792
C          18.41904830510790    8.63526661022785   -3.96516814617327
C          17.80359140730710    7.54294633000304   -4.56713126546823
C          16.53215451402374    7.15105912454476   -4.20093410055893
C          16.18106543406612    4.96258161493650   -2.07388171932180
C          16.95545910310882    3.81897859083306   -2.04595490299170
C          16.53646307464650    2.65163800337310   -2.67391497816361
C          15.31395505156588    2.65568393559485   -3.33737092007906
C          14.52871081812505    3.78822339190394   -3.36233837416787
C          17.34787581413688    1.39216063898628   -2.59925018866068
C          16.76228747228004    0.43943840259519   -1.55364361528899
C          19.82169040338547    9.02043640007261   -4.33138181317640
C          20.82552012294225    8.25359447361156   -3.46710774403491
H          12.57843596068779   -7.39595582466776   -1.02418215526291
H          15.43713593772734   -3.36929021089325   -1.70130157080025
H           9.15668329773007   -3.02408643026992   -1.23923209586195
H           7.83548662590227   -1.03520410021736   -1.27375608615052
H           8.01127047987502    5.17328796606498   -1.80837999594854
H           6.65118138579657    1.24251794297287    0.03041266627695
H           8.08623045325710    2.04618719545251    0.66778874546408
H           6.19295425593493    1.20044060118983   -2.38504719287139
H           6.30642482172761    2.95458508780228   -2.57427226394738
H           8.04102049025829    0.90844499752313   -4.03414031401955
H           6.71054786058960    1.83383014739471   -4.72947950945476
H           8.17700738973006    2.65944033429953   -4.19918420347148
H           5.64854012546360    3.48395144125487   -0.48897172966314
H           6.04744276517139    3.30642341816906    1.21519464780008
H           7.09351512963151    4.26277714492591    0.17174767138617
H          10.07158078261034   11.73811785747841   -1.84749829963665
H          13.33282301264434   17.03805226965607   -1.83168459530565
H          17.17533891985550   16.42057979693309   -2.39163661049764
H          19.01124019586531   21.51220534628997   -1.60484627934159
H          14.14047718810972   21.62808250235031   -0.55862019226175
H          10.91545379138345   16.08469219264273   -2.94547709751198
H          11.38433012738124   14.74930772037579   -3.99240658529937
H          10.17687358941222   14.08741150156479   -0.42533167866521
H          11.80706168422959   14.20816610955631    0.22577414754067
H          10.15342972499925   16.55355565651666   -0.83490112573972
H          10.48841217733313   16.17507571680068    0.85010804140292
H          11.80093566612516   16.67158773992317   -0.21113008700887
H           8.89470041258756   14.77477387356704   -2.21587065888752
H           8.93779951779758   15.03213439360939   -3.95619491175055
H           9.38212889418861   13.46245997069028   -3.29633365242723
H           8.59950121748350    7.35757456986175   -1.79712537013755
H           9.32494710804187    9.65504229119065   -1.89025839410327
H          15.91074389253697    9.50438507782568   -1.85977563719479
H          18.18244282243630   10.19045779665361   -2.51398087153599
H          18.32653461411943    6.99596511778625   -5.33836907780846
H          16.06361398858224    6.31344316530057   -4.69630720654118
H          16.51478015447191    5.85250263184242   -1.56063442989846
H          17.89962450203835    3.83149719610368   -1.52044693624321
H          14.97291793897001    1.75759238525673   -3.83094682383010
H          13.58075678995227    3.78526772688178   -3.87740450254456
H          17.34842201668727    0.89685238508631   -3.57273991892685
H          18.38035319638031    1.62930800372198   -2.33558748589477
H          15.74176747675298    0.16550962754926   -1.81113063307971
H          17.36279884053657   -0.46519161993802   -1.49221190247643
H          16.75135623591643    0.91451363825252   -0.57517094289165
H          20.00614421905968    8.79282846879433   -5.38299200640888
H          19.96299621215758   10.09216774574277   -4.18169406330631
H          20.70844721663906    7.18164343273773   -3.61077216403012
H          21.84273256896672    8.53106848420984   -3.73207931503052
H          20.66752796335852    8.47760723871017   -2.41453274533038
