104
 SCF done       -196.920394683149          0.000724533111
C           1.50897457507853   -3.57395063219310    1.07687100458070
O           0.62923135132468   -3.51634739925888    0.23563963542681
C           1.38763924596065   -4.17294093397149    2.42184351801559
C           0.29261305261996   -4.78019366414969    2.99961384976151
C           0.42068320179634   -5.27410889669504    4.29216778740966
Cl         -0.91888340685945   -6.03763368737029    5.04891569635663
C           1.63427066606817   -5.15130910957389    4.97579891429084
Cl          1.78047510274793   -5.76742057633022    6.57276656110350
C           2.73541919734036   -4.53661546721095    4.38811491876092
C           2.61140872180681   -4.04265548550050    3.10054567483547
C           3.56349868791884   -3.35581219720284    2.22689452179399
C           4.85354415841568   -3.03536710160996    2.56817555075645
C           5.78285371700002   -2.36148166598433    1.74917964318856
N           6.59769042309843   -1.81576675647481    1.14989664961364
C           5.43962657525394   -3.33687277079278    3.81564131838517
N           5.98113986923776   -3.55113039765536    4.80486455296030
C           2.88224469074946   -3.07921387757117    0.97938611583833
C           3.44845213331341   -2.45775571347465   -0.11074770819900
C           2.91381007129844   -2.11093559526770   -1.35189866260115
S           1.24265969773111   -2.39152845582369   -1.85259148864047
C           1.56162083369307   -1.64068409124731   -3.36800479364094
C           2.89692948335876   -1.20965617571973   -3.47627950087388
C           3.66668825061809   -1.46377339201810   -2.35167283261171
C           5.11943579901728   -1.12730609954347   -2.27086616302929
C           5.97952201934851   -2.34311224493623   -2.62759192483373
S           3.25890466186680   -0.42820894535205   -5.00332910250123
C           1.61410269347059   -0.67144162505597   -5.48560445760641
C           0.83751822277196   -1.33515479381631   -4.52223731012027
N          -0.44470846287018   -1.49174003560277   -4.97899024381530
C          -1.55310006955591   -1.68935941056215   -4.06922790617407
C          -0.49972454556088   -0.92022631695280   -6.23074443698388
C           0.77015736424178   -0.37394239510710   -6.56689755061459
C           0.89918893766779    0.37751483955675   -7.75041937109655
N           1.92363700083632    1.03218437192308   -8.30085898571128
N           1.40559651117138    1.61289757359790   -9.35256160482016
N           0.13208680765002    1.41814337227878   -9.56675461459114
C          -0.25055494731763    0.62186394513306   -8.56424875304172
C          -1.47326108395797    0.00883490540886   -8.25186761688540
C          -1.56806669889102   -0.83589159206795   -7.14442669552964
N          -2.80992100588894   -1.49103051628209   -7.07559954518808
C          -2.84052047300896   -2.94679514794163   -6.98684905902021
C          -2.21117349230570   -3.62440928484676   -8.20336986016613
C          -3.60445728867669   -0.91795696344401   -8.09102462763571
C          -2.77631007353642    0.06854648793238   -8.89758713729952
S          -4.05138715296073    0.86239023246586   -7.84034588909360
C          -5.12877043282104   -1.54501151286878   -9.97393984627247
C          -4.56829166832827   -1.57838019391178   -8.89730739163953
S          -2.86640984312794    0.19715241935304  -10.70716079425305
C          -4.61874622500644    0.33862163132675  -11.01943245802540
C          -5.40885985403957   -0.95022246995392  -11.27740037082686
C          -4.92674450823850   -1.76811347699140  -12.48823833070751
C          -3.83123092135547   -2.77739952973694  -12.17249685698825
C          -5.20951497832941    1.52517369580696  -10.81252726185547
C          -6.63628453041752    1.59955550860378  -10.91832112242379
C          -7.56708623639868    2.68233016151903  -10.73195802115392
C          -7.27568263081554    3.97658566618467  -10.40018688298996
C          -8.24773154524049    4.98538107782652  -10.23449349973674
N          -8.99745816362654    5.84210908218605  -10.09151712877693
C          -5.96437164663801    4.45735737403232  -10.19137518477011
N          -4.92235273326146    4.90438332821050  -10.01882869252382
C          -8.90529467497581    2.11870207308375  -10.96384362395431
C         -10.16145982532317    2.68271460176111  -10.92649096805644
C         -11.26675967900636    1.87167710796034  -11.19559854946113
Cl        -12.83604345428876    2.56807214052928  -11.15248454023731
C         -11.11192665258348    0.51860850673325  -11.49444877399950
Cl        -12.48926980227627   -0.45524239260587  -11.81850917730474
C          -9.84434521788861   -0.05863549214982  -11.53401374521705
C          -8.75631364280525    0.74544458290900  -11.27042869405372
C          -7.33602572993068    0.45102363447753  -11.22960484259616
O          -6.82496974615329   -0.73764791037594  -11.47837900194348
C          -1.71226874960967   -0.49512710999848   -3.13005275300465
C           2.18549896629845    2.47021997401227  -10.19753421342312
C           2.07186651281860    3.91926502173381   -9.73302621549984
H          -0.63743188137695   -4.86769281051159    2.46062087647288
H           3.65309035420980   -4.46139808329051    4.94774775828830
H           4.48750059251801   -2.17907619763624   -0.00214435364250
H           5.32347123347926   -0.32577425115878   -2.98355539408426
H           5.38747702919009   -0.77462075580106   -1.27390225460362
H           5.75645638268151   -2.68105978890956   -3.63692525723638
H           7.03127868168543   -2.07793911836351   -2.57170645414695
H           5.79371125164544   -3.16270766718033   -1.93750433922987
H          -2.46876835997902   -1.80222414693389   -4.64694083570793
H          -1.36548866006019   -2.59719704102965   -3.48779453263564
H          -2.30108284981670   -3.25539223309884   -6.09144585408347
H          -3.88858575920235   -3.24090604177724   -6.88662039388400
H          -1.17013294913976   -3.32335934632553   -8.30368873303961
H          -2.25277686398052   -4.70350511711151   -8.08354492411624
H          -2.73917068150544   -3.35362942809197   -9.11502991985506
H          -5.80296961325068   -2.29192170976612  -12.87738367988918
H          -4.58087421556637   -1.06841655723533  -13.25200410394873
H          -4.17339597373519   -3.49161376794277  -11.42650572168566
H          -3.56991381757701   -3.32057451991146  -13.07688728696217
H          -2.94052399312925   -2.27925532001614  -11.79941780457597
H          -4.62286094129288    2.39479900486996  -10.56600882901384
H         -10.31823927924803    3.72406933600057  -10.69661405973788
H          -9.72677282362759   -1.10511226475128  -11.76403038578005
H          -1.87709566779864    0.41428263566893   -3.70398271449078
H          -2.56639657585783   -0.65697589798875   -2.47900504902602
H          -0.82778727233722   -0.36718172472019   -2.51199957634044
H           3.22052643711848    2.12815001649786  -10.14246520030892
H           1.80398665616223    2.36549386313671  -11.21495118167921
H           2.43337765485503    4.01514305526308   -8.71209910061507
H           2.66533799648713    4.56136708547423  -10.37722362954269
H           1.03479649464997    4.24285497948798   -9.77225619259379
