254
 SCF done       -469.058126149837          0.000579040957
C          -4.41008630331340    8.43456806726282    1.20969091167007
C          -4.61934511464118    7.92144869723571   -0.08315513810669
C          -3.62280412160600    7.13108963258161   -0.70210431396000
C          -2.40294781252185    6.82360396473859   -0.10300301556751
C          -2.19214290701227    7.34000233317905    1.18923911961108
C          -3.19084977606306    8.13082515428668    1.80803188159067
C          -5.73377930621626    8.13018019576065   -0.94823854038178
C          -5.59148332743510    7.52711292818876   -2.14538155497030
S          -4.10505968341689    6.66187580761249   -2.31001813414081
C          -1.08398577302860    7.12755657365107    2.04774817556172
C          -1.20856533255631    7.72820490794819    3.26409366771612
S          -2.71646962920098    8.60445898815266    3.41738150495883
C          -5.40203236154754    9.22535792358852    1.91198016034114
C          -1.41341234191243    6.02152225406466   -0.79276798288940
C          -5.19170368502584   10.31428697958964    2.70943632436733
C          -6.38687137187595   10.78922390263699    3.28313440450377
C          -7.51140129151758   10.09167341155056    2.95716874298882
S          -7.09066558507854    8.79240984040197    1.89534849907261
C          -1.62595290307563    4.93256062944047   -1.59067722924205
C          -0.42646878149938    4.42815464881298   -2.12811898055872
C           0.70292641891778    5.10927540805475   -1.78311938573223
S           0.28301504493979    6.42200629224563   -0.73909782840965
C          -8.90936645902554   10.31523893676867    3.41988350828761
C          -9.37026025700651    9.20286517099603    4.36323243699940
C           2.11498089387428    4.81766933791331   -2.15584461839932
C           2.93485177976036    4.38276934785575   -0.94004143165012
C          -0.28513486900735    7.69686164813050    4.34882225365208
S           1.24126604065398    6.87476151749106    4.20757160828384
C           1.66949960151432    7.25432387782845    5.85115913769881
C           0.66551775778723    8.00119579002342    6.45806815091392
C          -0.42370532235659    8.24558170461686    5.59429127562772
C           2.93881857950356    6.80107501945342    6.31823370351096
C           3.36572402338678    6.55910256230085    7.60323223801446
C           4.67530629230726    6.07509582207864    7.62795570541192
C           5.27286687451870    5.94493405926600    6.37019146994387
S           4.17913385716738    6.41969197140319    5.12306383202751
S           5.75181880896700    5.57067930438186    8.87497155301349
C           7.00064077274247    5.20182935117537    7.68409206296382
C           6.58275183394971    5.45851679261138    6.39849705452664
C           8.22671687292379    4.66060123097701    8.17315774580107
C           9.51703873404272    4.61371906935950    7.65487415781973
C          10.43601014278223    4.00956813396203    8.54213290050862
C           9.88046615215097    3.57954894942939    9.71548455042794
S           8.17924670434656    3.94216602350880    9.75640474778103
C           0.65921424291767    8.55653781189377    7.82424820342199
O           1.26419178148566    8.13097063401746    8.77925410388436
O          -0.14026694747903    9.62986424725269    7.88166817485681
C          -0.28748736696984   10.26012030774611    9.15345787542193
C          -1.33788976027961    9.55953427729978   10.00353350327545
C           9.97254446033863    5.13129273815294    6.35281635464798
O           9.28086064767742    5.36123886232171    5.38912361279087
O          11.29984125774175    5.31632322510560    6.36261327912757
C          11.89810379744014    5.77131855787606    5.14984073168065
C          12.16933542327355    4.61620168748981    4.19629030590709
F          -6.41347697775044   11.86548056066810    4.09073313412467
F          -0.40181556249867    3.34779491513990   -2.92986175666903
C          10.38117743393102    1.06687476808124   14.00335555696816
C          10.71845862298979    1.70768379782386   12.79562837112861
C          12.06968419489458    1.77026733968406   12.37506061536456
C          13.12807778394221    1.25996431403178   13.12158033215575
C          12.79294172094772    0.62289455170016   14.33382030701933
C          11.43726308338327    0.53392331227473   14.73492224198310
C           9.85491767177573    2.37191160726433   11.89263654694406
C          10.49028640361707    2.89523438757450   10.80620441426658
S          12.21576723668779    2.60867835828807   10.85136538439594
C          13.65202429546086   -0.05128019715158   15.23818813513667
C          12.99830615723846   -0.64375063968039   16.27683193718044
S          11.26940046678390   -0.37921260927940   16.20842003750059
C           9.01418701427265    0.94319248890758   14.46649972469282
C          14.49590360910366    1.39134881326894   12.66267235867271
C           8.55553435910336    1.02809842653576   15.75124551278188
C           7.16606178813332    0.81660629122039   15.83258500310575
C           6.54303118611883    0.55167747942282   14.64934958515869
S           7.70789401293000    0.57416441928159   13.37199322908507
C          14.96352006695852    1.29499985238569   11.38224330686193
C          16.34943695260440    1.53075206886255   11.30550585464661
C          16.96075165331174    1.82476202091943   12.48783227440019
S          15.78902184148844    1.79787601461093   13.75955398168237
C           5.09432215916868    0.32311549990261   14.39115015392027
C           4.48156691855459    1.48016414851774   13.60000864021902
C          18.40221996574462    2.09519366678685   12.74673842064443
C          19.03353217387988    0.99323391699843   13.59881983986337
C          13.54410962775098   -1.42068590389725   17.34002350947927
S          15.25496872502330   -1.45348719967387   17.66868259798478
C          15.04538337020290   -2.56794905409559   18.99466567417292
C          13.69898332459985   -2.88856201073171   19.14305972945853
C          12.86881734032067   -2.22243594385674   18.21657623340256
C          16.20314849943598   -2.93981255629240   19.73267414896072
C          17.41833410538060   -2.27966803034381   19.64808110063350
C          18.37979053685880   -2.85029969441559   20.47555837984314
C          17.92095690656818   -3.97415755042469   21.17088048068639
S          16.25845657779840   -4.29554540660890   20.84288300038224
S          20.01917675522540   -2.48827439673302   20.88497592405434
C          20.07155258531807   -3.87093276248691   21.97201058320741
C          18.87948025562533   -4.55088062451613   22.00990753172832
C          21.24315215519095   -4.10789316194850   22.75405588343726
C          21.78453292158840   -5.29943034381554   23.21612828159957
C          22.89600904238283   -5.09812691315100   24.06141839115346
C          23.21717569985055   -3.78139092937634   24.24968190562522
S          22.14077428838172   -2.74638375927371   23.35179244681123
C          13.14346317755684   -3.80951553297213   20.13607230383891
O          13.78510838527647   -4.57505181962072   20.82280405261888
O          11.81063227896763   -3.71443636048446   20.20170181579384
C          11.14761851033599   -4.58917720776658   21.11445586282267
C          10.97461954881084   -5.98336006527581   20.52896900994639
C          21.34660539262003   -6.64552404758260   22.80649579819553
O          20.52141124972577   -6.89303714602929   21.96100082504842
O          22.02396322769492   -7.58938546936516   23.47762291926363
C          21.71518972757943   -8.94662733112218   23.16529222090499
C          20.47969726230681   -9.42576678370390   23.91428505988022
F           6.50283954991083    0.86991230475956   17.00217714650511
F          17.02003178289954    1.47220959852703   10.14032583173538
C          25.99046501933501   -0.50474724619602   26.83134114285430
C          25.51600600407537   -1.72264888648870   26.30478816236383
C          26.06467286837104   -2.94935363672676   26.75319651050715
C          27.06248230438752   -3.03861149448331   27.71837665615484
C          27.53650813843415   -1.82105662332248   28.24428924204969
C          26.99940115502637   -0.59298420961509   27.78585214959218
C          24.49293670744767   -1.92542370679089   25.34566559176136
C          24.22935129211120   -3.23866063164498   25.09309581095479
S          25.27360828304251   -4.30885799227915   26.00299224023442
C          28.52631751043991   -1.62403162708666   29.23733892770560
C          28.72467152619473   -0.31565338919519   29.56423599524813
S          27.71254557771643    0.75966028465464   28.62461996181448
C          25.44717164513206    0.78122492596530   26.44251283177485
C          27.55045390589537   -4.32767813096790   28.16565591235403
C          26.12592121687231    1.95307233419751   26.25904409060447
C          25.26516390179412    3.01837201563808   25.93271013181730
C          23.93961855927321    2.70549015127709   25.87794386465407
S          23.73394385436106    1.02457382794175   26.22792397977190
C          27.78295056298639   -5.44021078452722   27.40695315449386
C          28.21415030970125   -6.53142625853898   28.18522193006945
C          28.30252501747438   -6.29737522214900   29.52513234579802
S          27.84924027891327   -4.66054573826604   29.85079195290564
C          22.78899650729484    3.58846739528063   25.53946703477258
C          22.11828612000771    3.15847217357267   24.23414083792996
C          28.74662649032755   -7.22326101074474   30.60389513191656
C          30.02639812703679   -6.72567724168755   31.27682906945886
C          29.61277704387719    0.20206608801862   30.54981679721059
S          30.56898544252020   -0.87307738239500   31.53381732973477
C          31.26948065707832    0.45317166397906   32.42574882374358
C          30.76887793845497    1.66340283570073   31.95008832975544
C          29.83934425730129    1.50317460498777   30.89866976380840
C          32.19137668811751    0.12328471961038   33.45587828147604
C          32.56655902200774   -1.17861984356218   33.75260829503599
C          33.46211727597568   -1.23618458716039   34.81246619250204
C          33.78248951400685    0.01782245422092   35.34432990540667
S          32.96770393158579    1.29143519988704   34.50930111459084
S          34.28772187209467   -2.49986401919621   35.64942585810390
C          35.05723273611636   -1.32040856052814   36.71613461019701
C          34.68186369423528   -0.03278840281343   36.41453576378824
C          35.96153994639693   -1.81652115700752   37.70460544470761
C          36.50046118478824   -1.25994161468890   38.85884186808002
C          37.34141426206104   -2.17291878983550   39.55292419821055
C          37.44529365486540   -3.37927126292294   38.95115169050606
S          36.51010260395221   -3.45796439965357   37.51312382341692
C          31.13045347893815    2.98890849333300   32.45156997940987
O          31.89687685725620    3.21150039466289   33.36441396102244
O          30.51391279769355    3.96048756840335   31.76799977198355
C          30.77515034182483    5.30166615664543   32.18090142301894
C          29.92803593689745    5.69089002009951   33.38401326657563
C          36.27148006126817    0.08506168862910   39.40755199316693
O          35.82592057250947    1.04390494660590   38.82160985346919
O          36.63561567427852    0.13230740106190   40.70039694298956
C          36.49588722849959    1.38854176808931   41.36072120362433
C          37.66679075328898    2.31458322855254   41.06082293127751
F          25.72466256541039    4.26072263470455   25.69510248278575
F          28.51583693562435   -7.72349935539122   27.63859357643799
H          -6.59256064298453    8.71788372986060   -0.68326536650482
H          -6.27803386070504    7.52821960764060   -2.96911393007382
H          -0.22527873997670    6.53499968246854    1.79123848583457
H          -4.23972025934356   10.78656435396636    2.86297840752332
H          -2.58270212156270    4.47772912660723   -1.76555591716099
H          -9.57902134395051   10.35596766367802    2.55694961977698
H          -8.95018993167523   11.27789815647299    3.93399223435182
H          -9.33556193461626    8.24060902499957    3.85698251080514
H         -10.38975409042975    9.38854056663976    4.69072548557423
H          -8.72663850108753    9.15770917704922    5.23872738141610
H           2.56938104482748    5.70917655839202   -2.59606809584673
H           2.11391306608708    4.02517196752310   -2.90722687539448
H           2.94531594064140    5.17032623324124   -0.18961388146665
H           3.95856206214720    4.17007755286558   -1.23614017855953
H           2.50852268837710    3.48613980094709   -0.49598546969943
H          -1.29125010569541    8.80563737253228    5.89312901573227
H           2.75472446874575    6.72325391981118    8.46947548377245
H           7.19875412447922    5.29623876944697    5.53531677100338
H          11.47830989085191    3.88857924014569    8.30887351120161
H          -0.58414462340276   11.28597283032844    8.92584883429544
H           0.67973378439688   10.25531673674852    9.66686035286696
H          -2.28838950117077    9.52656517896955    9.47630366719513
H          -1.46790274677835   10.09810589936841   10.93771910634938
H          -1.01962687800919    8.54351518796038   10.22419605752517
H          12.82740472113741    6.25428083338672    5.45871555984734
H          11.23432339939206    6.50362888984137    4.67841784477895
H          12.79236530673746    3.86731965797629    4.67953035377821
H          12.67976689118809    4.98655202935299    3.31201717067769
H          11.23163552611958    4.15571186609037    3.89469788160751
H           8.79458372666867    2.47213239024344   12.03282235183140
H          14.71694641864661   -0.12782175594724   15.11869929104988
H           9.16165796335646    1.26876631438046   16.60420989752036
H          14.36688092464983    1.03063345437528   10.52969175217376
H           4.58665739048550    0.21977062400225   15.35249867704986
H           4.96362384659837   -0.60591169656407   13.83012889873947
H           4.58757919282583    2.41316522779856   14.14866930193363
H           3.42429822190971    1.29716028824161   13.42803392043883
H           4.97854359734472    1.58550691653071   12.63803261392878
H          18.50850493627891    3.05365435697669   13.26180248510770
H          18.91558329349519    2.16279435746490   11.78524988770408
H          18.53067338045766    0.92565788390346   14.56115850618823
H          20.08506958465607    1.20811850884193   13.76912754145792
H          18.95254566325963    0.03190576119297   13.09668312614425
H          11.80175013423889   -2.34908053920630   18.19502212614693
H          17.57675921161987   -1.41676399772612   19.02671432323902
H          18.70835326669678   -5.41462672355927   22.62199629902058
H          23.43998695457159   -5.90632849913432   24.51542318281839
H          10.18141735299120   -4.11587749872909   21.30063652330147
H          11.72572015819582   -4.63882315496435   22.04311093353519
H          10.44366085200755   -5.93065423125202   19.58142223734055
H          10.40773044189297   -6.59977813021633   21.22057205163099
H          11.94736272349818   -6.44075328131885   20.36587341045775
H          22.60049979480412   -9.51198388989085   23.46372422256299
H          21.55989952069591   -9.03598578465158   22.08495079816279
H          20.61023644623756   -9.28436409606846   24.98461878549129
H          20.31776999205080  -10.48045780425058   23.71151380632931
H          19.60674593809896   -8.86687337475222   23.58625928502470
H          23.95661740211616   -1.13372981080590   24.85589890768442
H          29.08185741114132   -2.41639384700582   29.70387754342991
H          27.19308030219094    2.05839455362999   26.31284667698635
H          27.69300780749657   -5.48281581048254   26.33786818447483
H          23.15866331726236    4.61212826015886   25.44926946964465
H          22.05399969938686    3.55846487884935   26.34840702952897
H          22.82891997415179    3.19658094481163   23.41172535553757
H          21.28698986681476    3.81995596133328   24.00525190747308
H          21.74167716221084    2.14148205976143   24.32008067993703
H          28.91536489848514   -8.20735138066442   30.16150591365706
H          27.95775091013870   -7.31543427729546   31.35547377158505
H          30.82929444170148   -6.63874650433073   30.54832507597330
H          30.33590569503452   -7.42049834251480   32.05293507309403
H          29.86011296705307   -5.74982607296710   31.72811702245532
H          29.35289975690247    2.33363124326888   30.42029909480428
H          32.19844630224708   -2.03450462380310   33.21610086996066
H          35.04461418027340    0.82457783763651   36.94736094020356
H          37.84359023485741   -1.91170628401428   40.46576527973313
H          38.01442723459768   -4.23303765885242   39.25989520496884
H          30.52992410537957    5.91379964997967   31.31053854327997
H          31.83916409403840    5.39951124659282   32.42042497880361
H          28.87294400897479    5.54521814281544   33.16427497465517
H          30.10015062574377    6.73542374749917   33.62676121570956
H          30.19967964191972    5.08080096547805   34.24203679283669
H          36.44982276039141    1.14202907011355   42.42379691336093
H          35.55645280059007    1.85445340740030   41.04418500581995
H          38.60551071470535    1.83436454432398   41.32778805935632
H          37.56089976811356    3.23165013439523   41.63320926333892
H          37.68301608992893    2.56029297107187   40.00170458808299
