120
 SCF done       -201.750048278286          0.000301501678
C           1.15150404621040    0.45167805732753    0.29556985278788
C           1.42183432862605   -0.93650242596021    0.20263313962779
C           0.43394182415532   -1.89978309467211    0.04161473075533
C          -0.89669556720424   -1.43443214442299    0.02315335450011
C          -1.16637524833173   -0.04600105887115    0.10218742947645
C          -0.17582281024184    0.92242918139507    0.22069813120213
C          -2.08384686987534   -2.19920336581395   -0.06434632636382
C          -3.22230362476671   -1.44568705304585   -0.10002353369200
S          -2.87795043820933    0.27071116666729   -0.00491105992144
C           2.33329815057410    1.20705791113039    0.47492769412033
C           3.47337486322199    0.45262017283439    0.48274574881974
S           3.13331740917148   -1.25225649723731    0.27663714663687
C          -0.50630595287568    2.33269906968106    0.24435918829412
C           0.73836080937804   -3.30646320033789   -0.12160326695412
C          -4.56599964380246   -1.89714660325240   -0.19812641058080
C           4.80954344927677    0.91243003004798    0.64814085370293
C           5.23983068862912    2.19954469739811    0.91031722123638
C           6.61927404818465    2.30822442271165    1.03157588235597
C           7.29088852650825    1.10813661392548    0.85607455879916
S           6.15160969014325   -0.17699459143770    0.54240370876513
S          -4.93750305361249   -3.59155185801148   -0.22560584905842
C          -6.64873191739951   -3.26671364543585   -0.37275728906703
C          -6.87443741257882   -1.89999272374011   -0.39940139936947
C          -5.71502705154274   -1.13985606422728   -0.29728167113240
C          -1.56171052170277    2.94251181006214    0.86297299402325
C          -1.61363993557287    4.33250859812740    0.64089089805678
C          -0.61500657478002    4.79293842876064   -0.16055303475617
S           0.43177786136045    3.50116626712923   -0.64700488876956
C           0.17866641811471   -4.19585538363909   -0.99587894925923
C           0.72180140849388   -5.49188227601040   -0.89589622833964
C           1.68691870739319   -5.60265762960428    0.05722869185001
S           1.95717398016300   -4.08486130840039    0.84815805243410
C          -0.33229330232092    6.19211791524273   -0.58632854823009
C           0.89889620757521    6.75350409939548    0.12816121319823
C           2.49625013727421   -6.79690177125556    0.42802989736629
C           3.95492784574591   -6.63335779020741   -0.00316743804265
C           8.69817773019009    0.95751699677864    0.94755426651118
C           9.60043250046786    1.95155809665743    1.32164201730401
C          10.91196968131011    1.39636087612232    1.33181503707577
C          10.80512502035836    0.01702287149277    0.93532717747546
N           9.42861212376532   -0.18732527288996    0.72226136724564
C           9.70526959337958    3.32638509629235    1.72878535258285
N          11.07886258033359    3.52173739845369    1.97486436748763
C          11.80926319250019    2.38033315329182    1.73865800946920
C          13.21260828773583    2.20812919203455    1.90081592009383
C          13.89300386485742    1.03570210835816    1.64006451127315
C          15.26881358173090    1.12392254194231    1.89034514360558
C          15.64661855290710    2.35287159684934    2.34069194561947
S          14.32465622910887    3.43134615551612    2.46929945194359
C           8.96810069174242   -1.46049096861495    0.22574506597290
C           8.73251291287293   -1.43111519347499   -1.28207546612303
O          11.63099999115133   -0.86594526864180    0.78768063821609
O           8.88087330559851    4.21247041306637    1.86985195241175
C          11.54800831156909    4.83154456321000    2.35390990306226
C          12.08805715715530    5.61216198929052    1.15854633957448
C          -7.66546611630760   -4.25028786690826   -0.47903192717190
C          -9.01410703638149   -4.00145713105956   -0.72583102441365
C          -9.70070328336952   -5.24677751157824   -0.80477772396857
C          -8.73672330233459   -6.29165175195826   -0.58268372996898
N          -7.51525060443427   -5.61640422079606   -0.39659776135848
C          -9.97493878304769   -2.95770069441453   -0.96068281059045
N         -11.19044973144120   -3.63525814979357   -1.18212583441425
C         -11.04128278885889   -4.99930400591626   -1.08914091351622
C         -12.04689143688268   -5.98889719796171   -1.27559818124752
C         -11.83940732619751   -7.34864251278660   -1.15806961560770
C         -12.98995389840761   -8.10973661112691   -1.40328013110049
C         -14.07525642635082   -7.34452399433320   -1.70746670153669
S         -13.71254576736563   -5.67264747504275   -1.70201471839593
C          -6.33218126576305   -6.37018531487618   -0.06316022708693
C          -6.04560280340746   -6.34688523947277    1.43592372093541
O          -8.82818895124615   -7.50565278803659   -0.54560414779796
O          -9.88558076243281   -1.74318067109254   -0.99093429095343
C         -12.39548248221966   -2.87173970208783   -1.39280081617414
C         -13.21044731485154   -2.72772137483582   -0.11028072160798
H          -2.10243393830005   -3.27404946524324   -0.08098871199437
H           2.34278900549467    2.27263711678868    0.60340088556876
H           4.56690758428764    3.03040878296355    1.01512347502352
H           7.13317478111488    3.22800770748948    1.24774893773041
H          -7.86063615650647   -1.48228639447588   -0.49712109691930
H          -5.69541153575321   -0.06452239823591   -0.29848861932848
H          -2.26018929600916    2.41945909277197    1.49070096006738
H          -2.37220205050538    4.96933986524930    1.06037273918315
H          -0.56653237467292   -3.91941051885695   -1.72040880698080
H           0.40471593299520   -6.31466846252720   -1.51222117794728
H          -1.20373695956450    6.80970531023698   -0.35925899633689
H          -0.16308623797906    6.22165300486372   -1.66573977965040
H           0.74840171841794    6.74496522039565    1.20541215043879
H           1.08515775022246    7.77630376705719   -0.18916465471570
H           1.77555306469219    6.15285401516650   -0.10398493417894
H           2.06437333676765   -7.67696364206639   -0.05316274999046
H           2.45837899908477   -6.94538005102267    1.51029817650929
H           4.01811948106171   -6.50107114090155   -1.08089670656927
H           4.53132973597430   -7.51216919886903    0.27451152704841
H           4.39324882497546   -5.76175289981973    0.47766450770027
H          13.40172268652841    0.14855312394945    1.28256682951085
H          15.95500514627648    0.30975283991810    1.74243189801928
H          16.62672599859894    2.69456536834781    2.60941495021543
H           8.06370168937604   -1.76512742810812    0.75751736043201
H           9.76811729689087   -2.17136553227729    0.45423911628038
H           7.97571462704218   -0.69623206729149   -1.54529528070938
H           8.40002192213244   -2.40819765847134   -1.62031612292372
H           9.65752323834015   -1.17853313010999   -1.79504186320305
H          12.30170222894947    4.74546385186635    3.13977690070460
H          10.67364842186146    5.35106386516880    2.75827947309895
H          12.92832840153783    5.09569016187796    0.70114284669610
H          12.41799556088009    6.59521009487841    1.48176701315511
H          11.30482765598007    5.73271371675764    0.41399059998063
H         -10.88227787004702   -7.76849704775074   -0.90537447656314
H         -13.01590223301522   -9.18339761752714   -1.35524409186615
H         -15.07331727956661   -7.66087515897983   -1.93887341444828
H          -5.47749948072654   -5.99537236990339   -0.63114529807758
H          -6.54135188820214   -7.39768386669197   -0.37639661179225
H          -5.88053887181915   -5.33107971751449    1.78661687271796
H          -5.15865666602013   -6.93652557400027    1.64920785255310
H          -6.88695839403638   -6.77112738306328    1.97861065914013
H         -12.99124137263566   -3.32554204905083   -2.18790061049442
H         -12.06267534271908   -1.88236816846049   -1.72170508518415
H         -13.50543039268972   -3.69986776519262    0.27701730021148
H         -14.10589259800137   -2.14597061137115   -0.30878947835218
H         -12.61986985384318   -2.21530967586524    0.64534559670905
