245
 SCF done       -441.724529092259          0.000527296830
C          -1.73940225964895    2.89312991310893    0.92282972326910
C          -2.64031660329334    2.12048983711033    1.68609162155067
C          -2.57877747771829    0.70678565384230    1.64730483671769
C          -1.66770967601927   -0.00127356131050    0.86974030370052
C          -0.81344980338321    0.77180247188181    0.06168095412752
C          -0.86359403080514    2.18702658878989    0.10163977585667
C          -3.67781298609441    2.56363262039288    2.55985108375486
C          -4.32904466953518    1.55122404497026    3.16750922981179
S          -3.75135332690492   -0.01188071118801    2.71641551616888
C           0.17509600881841    0.30538987565640   -0.83448577160696
C           0.89995297581166    1.29736536375402   -1.42668502909056
S           0.34926379288709    2.88616168473892   -0.94196145939781
C          -1.71439262259107    4.33883670823270    1.00857031718886
C          -1.60837829614384   -1.45163441462867    0.88134823707217
C          -2.64652506247989   -2.33781663717305    0.84001247269073
C          -2.20029532176100   -3.67309300508724    0.80591193915466
C          -0.84718155335142   -3.84308145288057    0.83453370182051
S          -0.08235941399376   -2.29764503367239    0.93681713860924
C          -1.94446698146447    5.12914266894214    2.10266957871813
C          -1.84064329774893    6.49857844320944    1.79675322811567
C          -1.53353040631225    6.78774460073080    0.49982283128489
S          -1.36036837793344    5.31707467057891   -0.39053723258365
C           2.04811055410569    1.08904869607842   -2.24635346720344
S           2.53098009515770   -0.54763355110060   -2.58094625693391
C           4.01821962742623   -0.00509691495647   -3.31011569495354
C           4.07915104713354    1.36790198976119   -3.33474277853388
C           2.96761727803330    1.98374677489593   -2.74344907191944
C           5.00626581663850   -1.02382112408526   -3.53615376479730
C           6.37591721509431   -0.85241938282965   -3.35130624595619
C           7.24105625098432   -1.95981299916306   -3.06362173843700
C           6.72774605555506   -3.23239973330126   -2.77988863887207
C           5.42870926811276   -3.46216771215019   -3.30412533104314
C           4.57925172676916   -2.36867197839203   -3.68860775479391
N           4.73857856687489   -4.56967208218630   -3.45777963867440
O           3.54261282323812   -4.20123911957266   -3.92625988338030
N           3.42676740793239   -2.88144007058459   -4.05836243668707
C           7.18361569194591   -4.07282367080123   -1.70733310876194
C           8.01207400073798   -3.72006590657587   -0.66064170198311
C           7.74525598217261   -4.42375261755490    0.52122316793206
C           6.73971975830463   -5.34648350762105    0.39200499975767
S           6.18006195889969   -5.42954132471214   -1.25956959544971
C          -0.08626400105628   -5.12328472660511    0.75475553527321
C          -1.32265263826386    8.11854080081736   -0.13182046131154
C           0.09851466952377    8.26160522181552   -0.67544422268935
C           1.22426989557950   -4.98183586015813   -0.01248048284218
F          -2.03545259922188    7.45520095054841    2.72844351376872
F          -3.04654751487860   -4.71249138188516    0.70586270511108
O           6.85204576983750    0.42552273388159   -3.36278956075178
C           7.57016465865852    0.88846725684470   -2.22406012314775
C           6.74752930127542    0.79208053771249   -0.94368998416396
O           8.56684335603879   -1.67933270414393   -2.95069006077504
C           9.48751563543690   -2.68661245122082   -3.35559938369407
C          10.68449077164178   -1.99764762893371   -3.99239470052955
C           2.89168805503643   -4.41999734344066    3.25089861318053
C           3.91740438242791   -5.20440284740778    2.69763172365600
C           3.81553518265736   -6.61445942384919    2.66254720039263
C           2.77173097360304   -7.31030539298314    3.27140044875391
C           1.74038582756871   -6.53169243232464    3.83792475884647
C           1.81830331164485   -5.11774907489537    3.79357949549299
C           5.07617403454770   -4.74408701841530    2.03098932242559
C           5.78754355754663   -5.72602369009980    1.41391676122938
S           5.12174293802728   -7.30775542487111    1.72610654162329
C           0.47709545806215   -6.97016643762163    4.32723348070028
C          -0.38135948394328   -5.95101730141485    4.60503814039919
S           0.35134739550887   -4.37862900505117    4.35900404723193
C           2.85599114165916   -2.97501445635139    3.15039525786721
C           2.74968367414007   -8.75808148800398    3.30347884462741
C           3.14534322926344   -9.64007735781662    2.33857880855346
C           3.04250700808348  -10.97685479516902    2.77024198376768
C           2.59651423162644  -11.14971930194297    4.04660267925678
S           2.26820461949479   -9.60445444866513    4.75121775690623
C           2.32345279310378   -2.08483582584840    4.03711456811611
C           2.34811959654337   -0.75914208958216    3.55662592257056
C           2.87297560311472   -0.59834159184050    2.30922629651958
S           3.37388014791622   -2.14135240003409    1.70423137995706
C          -1.76289005887905   -5.95362865624980    4.98486660888898
S          -2.74332199664113   -4.64889004681203    4.39717177088527
C          -4.11897890145414   -5.23309289214254    5.28026046402580
C          -3.81694044953255   -6.38732497794653    5.96159433708609
C          -2.49072811547901   -6.80547859643154    5.78061631036536
C          -5.29560042563133   -4.40654314211443    5.24965103899170
C          -6.19330785955816   -4.23439053212197    6.29749728811297
C          -7.17346679132308   -3.18903419111489    6.29805542014233
C          -7.25642566479716   -2.23748787745016    5.28262093485270
C          -6.48679781825437   -2.53473954053150    4.12771807596162
C          -5.51660646260810   -3.58914439732491    4.11445614016721
N          -6.45847520564299   -1.95951743940803    2.94460353457084
O          -5.53610405780055   -2.61373337225840    2.23674509869008
N          -4.95298683564130   -3.58766348306877    2.92476035410133
C          -7.88719297841440   -0.95163192262133    5.35581087973588
C          -8.45542302030326   -0.27847761640551    6.41995396795666
C          -8.67716168232040    1.07816107319352    6.16863187209723
C          -8.27874329633364    1.46800791497546    4.90907592446443
S          -7.68028631571904    0.11415750644039    3.99638783618664
C           2.37135777605318  -12.42131803037122    4.78887480250204
C           3.08237869671392    0.61677078856727    1.46770301752863
C           2.28420351690847    1.82668851760069    1.93799243516826
C           0.89858800780201  -12.60728451269034    5.15433096208945
F           1.88123255910916    0.24954963015891    4.31453123959594
F           3.36835525205108  -12.01190379306400    1.97494935050120
O          -6.11433579235196   -5.10381213672108    7.34798402819586
C          -5.81382524687754   -4.56740469623207    8.63283136318939
C          -4.39269745439935   -4.02037408914977    8.70181108721755
O          -7.99747980676345   -3.11077226748013    7.39722271716397
C          -9.36876738303111   -3.38972664922820    7.13372512777352
C          -9.59430405116951   -4.85467065628880    6.78220717343664
C          -6.54090273761069    4.94724050440319    1.81840702261718
C          -7.28071535404005    4.37927373749626    2.88072383212390
C          -7.82409089211259    5.19607734743334    3.90341401066440
C          -7.67312771529976    6.57542076323668    3.93223969076159
C          -6.92628763323025    7.14828060522029    2.88282080019457
C          -6.35969520345024    6.32874528536546    1.87345394246122
C          -7.48436570664626    3.01109624619799    3.16046835083603
C          -8.13104021183512    2.76345131215595    4.33785622827001
S          -8.58782036295424    4.24168637639245    5.15264534762769
C          -6.65058626506204    8.52061835580144    2.67346937388857
C          -5.86814870712437    8.76395705295668    1.58113063824377
S          -5.45843745769387    7.29012995985957    0.73401552220991
C          -5.98234546384738    4.14288068940869    0.75205030534879
C          -8.20922976048009    7.38710290496327    5.00693963042441
C          -7.58974515317420    8.39420601656171    5.69039017927689
C          -8.42114816399764    8.94433363771356    6.68524660530538
C          -9.66497285821759    8.39502274549236    6.77753849779895
S          -9.82672267067652    7.13540643242938    5.60200199023374
C          -4.85216746483574    4.38028087279465    0.01558425567723
C          -4.60478131053409    3.36845968345547   -0.92921623280601
C          -5.53010131381127    2.36785134438722   -0.97163235266721
S          -6.74983396614133    2.67162669352424    0.20873675601943
C          -5.35082508482621   10.01286191710615    1.13250071650814
S          -4.17694252646893   10.07690633074252   -0.14182896379725
C          -4.04145623359308   11.80317324804520    0.00928271521159
C          -4.90136422000915   12.27831729607970    0.97957993930999
C          -5.63065139371266   11.27525208716727    1.61456897854030
C          -3.10014426000542   12.50624738349147   -0.81210228862030
C          -2.76732697349788   13.85372117472556   -0.68662681255140
C          -1.83979322748295   14.50154436498424   -1.56447030471112
C          -1.11036470651459   13.82607963124949   -2.53428822382213
C          -1.41771072733069   12.44811395334079   -2.66234914723729
C          -2.40248860032626   11.80945361270971   -1.83203947990702
N          -0.93102706819745   11.52930687256774   -3.47068532591806
O          -1.56311160206519   10.39656521456829   -3.17412601701959
N          -2.45295904412210   10.54362441566968   -2.19117621103223
C          -0.10121297100997   14.41946800039650   -3.37162683302378
C           0.62795068144265   15.56624007055210   -3.16493692475815
C           1.55724749978144   15.81789818155796   -4.18698205906542
C           1.52932448290387   14.86940147709915   -5.16345086408792
S           0.38132897662723   13.63573054244063   -4.84953647191551
C         -10.75635856243386    8.72823991107085    7.73470089002715
C          -5.53476050242620    1.13548602973973   -1.80667943943503
C          -5.04011430295901   -0.07020537507996   -1.00414563345528
C         -11.00769242966566    7.57879489886234    8.71170424249460
F          -3.53002991754909    3.38457862271530   -1.73766221328728
F          -8.01167080395684    9.94922275503650    7.48356792700512
O          -3.40884302550417   14.59768617047952    0.26217874788255
C          -2.60231287669358   15.22708941603749    1.25500400803952
C          -1.89205190432005   14.20975277812293    2.14025151906160
O          -1.70139016796976   15.86399029052644   -1.40449064626353
C          -2.32622684521047   16.65241777515374   -2.41177780137850
C          -3.84465140547388   16.53191005445510   -2.38943575186080
H          -3.93893165919115    3.59450447582894    2.70554923834678
H          -5.13689387699855    1.61676677502497    3.86927919426589
H           0.36213205151614   -0.73347369699516   -1.03384310915749
H          -3.68369796062044   -2.06836342805700    0.78555426996436
H          -2.12462845720631    4.76505938888340    3.09644638517094
H           4.90569588997478    1.90287149124847   -3.76457815494072
H           2.84610818385075    3.04894531749717   -2.65262417707810
H           8.68987495363509   -2.88623626351015   -0.68873381826250
H           8.22887708475420   -4.21284076873086    1.45849990644599
H          -0.72900534369771   -5.86386499329107    0.27135545166916
H           0.12641726258043   -5.49085927166806    1.76247249268544
H          -1.51624198271356    8.88854511871887    0.61805486248261
H          -2.03302506081682    8.25689155205845   -0.95043557974818
H           0.82804114444018    8.15738319411092    0.12500387052275
H           0.22679014238491    9.23706711800667   -1.13669208129507
H           0.29221612663796    7.49796775822201   -1.42484981003968
H           1.03974568378322   -4.64508278073689   -1.02988702382364
H           1.74074243641769   -5.93774162084445   -0.05196939351274
H           1.87635560816114   -4.25962823498032    0.47439887048980
H           7.78828042482905    1.93234171456738   -2.46162355687833
H           8.51199592315111    0.34341408860497   -2.11151880043365
H           5.80742767124126    1.32758328909770   -1.05662080975060
H           7.30693793237117    1.22519694764605   -0.11905584265640
H           6.52671762876012   -0.24837075821562   -0.70949988843301
H           9.00113346669322   -3.36284087036520   -4.06827547879179
H           9.80813636632369   -3.27946041627297   -2.49062300897843
H          10.36835862740230   -1.41684131099823   -4.85481621361875
H          11.40869016754507   -2.74233675520840   -4.30914452508419
H          11.15351396477648   -1.32762581481732   -3.27685870332550
H           5.34676987824797   -3.70858224168287    1.94843916733422
H           0.19025265654138   -8.00250034905003    4.40059097032718
H           3.46326018263801   -9.36740303957184    1.35003808386248
H           1.95496782432500   -2.33701768931448    5.01404466168900
H          -4.53889877223145   -6.91150471496220    6.56058698432377
H          -2.06947128797699   -7.68129096919824    6.24116355733316
H          -8.65010120585256   -0.74054213773087    7.37042659590719
H          -9.07623218381970    1.76589523991381    6.89326717531816
H           2.97084492610359  -12.42109082989212    5.70353705508091
H           2.70733695656421  -13.24824227956759    4.15977685845651
H           2.80390361815233    0.36822462226143    0.43988175339754
H           4.15039531789518    0.86328997159152    1.46038349653755
H           1.22601046171860    1.58469499613656    2.00108823181438
H           2.41091178353856    2.64533975011526    1.23403230022510
H           2.61882184955922    2.15826370074022    2.91694122050945
H           0.56159051720561  -11.78835188799586    5.78629675285234
H           0.76087074680496  -13.54189587555934    5.69154098458102
H           0.28472840517045  -12.62850889555141    4.25687626427314
H          -5.93093949736141   -5.41803052691667    9.30843046414867
H          -6.53259377648555   -3.78911968085720    8.90494753911912
H          -3.67505068068945   -4.79152975422593    8.43163897226870
H          -4.18366057725914   -3.67767261242748    9.71131234099464
H          -4.27528699448727   -3.18298591091685    8.01647463241764
H          -9.74192200369420   -2.74420870052300    6.32902367048033
H          -9.88200237315013   -3.13493680610737    8.06400635925568
H          -9.11293836276012   -5.09739242479296    5.83679507256888
H         -10.65920703971708   -5.05057795997793    6.69552028387302
H          -9.17516496995868   -5.49349728485383    7.55575325631260
H          -7.12239303337457    2.20881351150761    2.54701380569800
H          -7.02499710642665    9.30009252477308    3.30930526129333
H          -6.57343056223311    8.70378718972623    5.53181523881879
H          -4.19174216984494    5.21339991089076    0.15527653753106
H          -4.99855608504057   13.32237990186127    1.20828994627046
H          -6.34290801672189   11.46337490524862    2.39734882809806
H           0.51075268737433   16.18700873025357   -2.29570058732959
H           2.21821030714469   16.66594253205962   -4.19574819513243
H           2.12463624395808   14.82031437318106   -6.05359097814384
H         -11.67617701832996    8.93999796907519    7.18340209071917
H         -10.46897295927479    9.62744662553474    8.28393026669773
H          -4.88225265133876    1.29560942642821   -2.66774198469364
H          -6.54756568623832    0.94147833593109   -2.16662445466910
H          -4.01566332918752    0.09346214707029   -0.67737455800701
H          -5.06871397178270   -0.96565073470051   -1.61928390885686
H          -5.66682715295545   -0.22754696855839   -0.12845271178765
H         -11.29548030529086    6.68089226893550    8.16924911457795
H         -11.80454902206436    7.84145917728592    9.40254687677467
H         -10.10780632048869    7.36439486042792    9.28366369840707
H          -3.31458729406646   15.81500711057891    1.83905958167306
H          -1.87436720910765   15.89999093817285    0.79284204431120
H          -2.60963916248165   13.52876094745126    2.59197230032908
H          -1.35110737307813   14.72811887433046    2.92690828313969
H          -1.18376671586962   13.62711548261365    1.55402547722742
H          -1.93843479545586   16.38031019536870   -3.40147606159892
H          -2.01883240962136   17.67457671449170   -2.17902475589845
H          -4.15278637353637   15.52541572862252   -2.66611367872156
H          -4.27530464674513   17.23690637459482   -3.09484949342494
H          -4.22422240676469   16.74562671506582   -1.39330594563069
