257
 SCF done       -460.433280902122          0.000305774734
C          -3.01643486152125  -15.38060273341502   -8.68673304039655
C          -2.70408318012355  -14.06824319063287   -8.25942060796241
C          -3.51766019526334  -13.33023911019979   -7.40152146609936
C          -4.72538321696595  -13.94913439947273   -7.01955032023236
C          -5.02723683353296  -15.27230866038230   -7.42097931369545
C          -4.18315288879703  -16.02409737037616   -8.22992986162435
C          -5.74215150431279  -13.41714183102136   -6.19867553276283
C          -6.74808971140644  -14.28896122742182   -5.89576456348204
S          -6.52190800564237  -15.82551376929850   -6.70427013823100
C          -2.02497048248103  -15.89248888397911   -9.57563088499314
C          -1.00467216126497  -15.03564755560160   -9.77857668706063
S          -1.17541500689307  -13.54721525454622   -8.91623197620104
C          -4.45324707565082  -17.41031122778040   -8.55504674253311
C          -3.13890054325669  -12.02364108535158   -6.90258310623579
C          -7.75796729286795  -13.99169962711738   -4.93081420963726
C          -3.56917499641934  -18.45165867178005   -8.58093162442823
C          -4.19466754520327  -19.66667847775851   -8.92083488212195
C          -5.53294972259911  -19.58693273512102   -9.16581734307270
S          -6.05918488364298  -17.95140304609552   -8.95886883682642
C          -2.43561921656327  -11.03618246860619   -7.53939906632394
C          -2.27004943810480   -9.89837638022434   -6.73001474129968
C          -2.81301988404772   -9.97744725511518   -5.47895162755211
S          -3.53537358626272  -11.52832103946345   -5.27509814291396
S          -7.47604715190490  -12.54350374459772   -4.00550640602130
C          -8.85097107960105  -12.85108350741745   -2.99332545524749
C          -9.49856193506864  -13.99430452139063   -3.39575001234262
C          -8.88906482754853  -14.64707696624243   -4.48715601040295
F          -3.51046568826946  -20.82401904337130   -9.00150543037692
C          -6.47786494777260  -20.68390537229428   -9.51518802051283
C          -7.46827223573696  -20.94673397781123   -8.37977662862605
F          -1.63091046362410   -8.79323811860039   -7.16647438310798
C          -2.87362085610020   -8.91879160651155   -4.42819661364034
C          -3.67262534674981   -9.34772831458752   -3.20473117787660
C          -9.39598963943670  -15.93812371254604   -5.04795175232029
C          -8.80353757619102  -17.13044501814391   -4.29397619108889
C          -9.02788404304930  -11.96712585552129   -1.88572868197355
S          -7.79736797445898  -10.73231074122661   -1.70492694791402
C          -8.47555751886425  -10.23252528648989   -0.20458482177258
C          -9.62845452053907  -10.95907888747331    0.11614059151367
C          -9.92981661746265  -11.94307613611164   -0.85279900080289
C          -7.90756342503900   -9.29652123708459    0.66203523712086
C          -8.45587489053018   -9.00093630930269    1.91542124648669
C          -9.66957961001356   -9.66465631247473    2.24998913172533
C         -10.25171183839407  -10.64290794318044    1.35566649535376
S          -6.41277008259537   -8.48035442986330    0.40311041958573
C          -6.48621832796225   -7.77871372906182    2.00578836302597
C          -7.63733068360658   -8.12817790090044    2.66576595745417
N         -10.37935481962518   -9.52116040018007    3.35812023786888
S         -11.65673223352677  -10.50876046449474    3.29547191321418
N         -11.36023492685998  -11.17026577011145    1.85127764500453
C          -5.33780413148766   -7.05056711591038    2.43804786142512
C          -5.08725120384983   -6.32909838366540    3.57956404340859
C          -3.77034239299107   -5.84090384447233    3.67734394462922
C          -2.99286865375308   -6.19380267315635    2.58973272318627
S          -3.91977878664737   -7.12021518724243    1.43890452510040
C          -3.30749863315592   -5.01370527099829    4.83415245976274
C          -3.38799542859902   -3.52127542397915    4.50775288332302
C           0.39418080209588   -6.30884587625450    1.11847879897760
C           0.84300333956575   -5.50004765967489    2.19006803995059
C           2.16073635162450   -5.07098886250715    2.32576287349069
C           3.06732300934163   -5.50051562256760    1.33209957537346
C           2.60660381558735   -6.29971752100396    0.25708057036352
C           1.29580196649485   -6.73880606126185    0.12648930800076
C           4.46940802930214   -5.31186314379325    1.27375365662305
C           5.07111383010570   -5.90805542923575    0.19996436980257
S           3.90428813369144   -6.73372844081556   -0.81322627309766
C          -0.99266324888023   -6.56134841475277    1.19013501377738
C          -1.61229248305923   -6.01165625933296    2.27780870090954
S          -0.47698915701385   -5.11223638393424    3.26524989179181
C           0.89489855412095   -7.65001199132398   -0.92746286121034
C           2.55955784166105   -4.21497846956189    3.42331029300938
C           6.46549595312996   -5.96658024053335   -0.08541978482501
C           0.11279728917249   -8.76511592696019   -0.81649996627416
C           0.01126981018090   -9.46222007177566   -2.03596134238971
C           0.67910646709442   -8.90662944354875   -3.08686374076182
S           1.47630903951886   -7.46342507221056   -2.55968310995056
C           2.11247393968676   -4.23559482906015    4.71478665660438
C           2.68366552714567   -3.20860922555871    5.48995219381110
C           3.54497641377784   -2.38445198531155    4.82906410471861
S           3.67729407845462   -2.89761664451619    3.18291642304436
S           7.59665626454761   -5.42333926980079    1.13107293226359
C           8.94245771406291   -5.91810833026643    0.15212106804321
C           8.51270763085618   -6.43418461357799   -1.04733324369922
C           7.12058641081055   -6.46777605776864   -1.19986466240093
F          -0.69294592846647  -10.60475181421312   -2.14837639004842
C           0.81594200292545   -9.42093117806325   -4.47893921828918
C           2.25822048417781   -9.83309294636401   -4.77551841496611
F           2.39115395415902   -3.05237057354544    6.79470167498576
C           4.32296889829577   -1.23176037594578    5.36233780378528
C           5.82542881206547   -1.51705609459755    5.35131841970083
C           6.42415499690053   -6.98903476640132   -2.41898568989138
C           7.35457436044431   -7.28170643970603   -3.58979565041529
C          10.28862794116825   -5.85358996738534    0.60751631945450
S          11.52917724400325   -6.64040890633629   -0.35058597519294
C          12.73258075246148   -6.24775409506708    0.82712159985565
C          12.18848506537863   -5.51719047872584    1.89270488796016
C          10.80196201589203   -5.30678382039349    1.75400186499955
C          14.07931033066013   -6.62429911652776    0.79594724351480
C          14.96999239112818   -6.28496978084636    1.82382694816935
C          14.46057458979316   -5.51242318344391    2.90230864600960
C          13.07011214567084   -5.13086793583821    2.93799289039929
S          14.85064000102544   -7.58315679358905   -0.41938431890282
C          16.36345629441807   -7.54600634344721    0.46600356744127
C          16.25996106511167   -6.81322576017618    1.61948514816546
N          15.12589876589666   -5.07267482552697    3.95982252316454
S          14.10910964664573   -4.25539605752255    4.91247760602827
N          12.77339361445710   -4.42733061978084    4.02034479370110
C          17.47444385031849   -8.27025403951979   -0.04771162226872
C          17.50159272006643   -9.02761221950606   -1.19495209649359
C          18.72104420827926   -9.67496235099425   -1.43421970378632
C          19.65408086768926   -9.40501054326498   -0.44512222548294
S          19.00221115601186   -8.33513571171272    0.77352132065922
C          18.98943860133463  -10.55447483111390   -2.61602554140290
C          17.83194741271268  -10.64658300297403   -3.60218968139153
C          23.14186265117288  -10.12209715371204    0.58937218757404
C          23.19835672311020  -11.03121803666377   -0.49484241184942
C          24.29622603507069  -11.84078402072906   -0.76741805513285
C          25.40439384337406  -11.69713819519683    0.08989949141072
C          25.35626486569400  -10.78218631879523    1.16924985907952
C          24.25232851591109   -9.98197523366036    1.44800603946415
C          26.66091727454850  -12.34163465727870   -0.00684072771802
C          27.55776961000471  -11.96021244760037    0.94818279133121
S          26.86602733868584  -10.76957429039480    2.03815674494868
C          21.87716876097103   -9.49399204262210    0.67895959027638
C          20.99282908367604   -9.86677451398602   -0.29471595713208
S          21.70353428274142  -11.04138216320776   -1.38489531215005
C          24.26714901346509   -9.04927970269861    2.55560398692537
C          24.26935283230679  -12.78947090125314   -1.86226455656395
C          28.89904993252819  -12.40216328030774    1.16147742943193
C          24.83119750842998   -9.21863885586576    3.78886923852305
C          24.68605375221414   -8.07617851078103    4.59885581188418
C          24.04379957511473   -7.02318822801078    4.01850854707388
S          23.58200801523515   -7.45221234470288    2.40832758972457
C          23.69707771114650  -12.63637277377005   -3.09343225567879
C          23.80241597906100  -13.80121696789053   -3.87785755519121
C          24.43288496294225  -14.85351113285544   -3.28476760476800
S          24.92470846985496  -14.39768974118386   -1.69021650052329
S          29.65023047295279  -12.06149762701498    2.69990835113267
C          31.11597517710260  -12.85081483726762    2.21067364151347
C          31.00385258386421  -13.33012805417972    0.92804966928985
C          29.76332897728249  -13.08270829912261    0.32124166831588
F          25.15151081259935   -8.03083678785147    5.86056387332505
C          23.71074360064100   -5.69634246063422    4.60736338131870
C          22.19859775591066   -5.49284820577512    4.70877666786819
F          23.31819857633657  -13.86277483259710   -5.13257453405956
C          24.68711733158781  -16.21534175309394   -3.83188032913725
C          23.96287748575533  -17.29162422181305   -3.02284127310349
C          29.48006797669036  -13.53550666706653   -1.07682477079432
C          28.89576243224634  -14.95038170378198   -1.09201659665031
C          32.23836135579078  -12.94763028436899    3.07926608350965
S          33.68406016550158  -13.77732718020229    2.53616149327721
C          34.46986097484816  -13.46648567320030    4.04708016882604
C          33.63512933105364  -12.75193137172541    4.91805058610710
C          32.37661377982334  -12.46706864867182    4.35424653834674
C          35.76494531260533  -13.85105626243217    4.41526822304724
C          36.29654111593769  -13.54320569343850    5.67494883707756
C          35.47713587218531  -12.81921340459006    6.58101380536289
C          34.14494817988732  -12.42284501605979    6.20208602522749
S          36.90298465885808  -14.73164574724064    3.45088526720196
C          38.08601909225916  -14.68309797366094    4.74193151788091
C          37.61081213709760  -14.02250392518998    5.84211380264681
N          35.78413489464587  -12.42956128675497    7.80951333175192
S          34.52162300064813  -11.63890322558348    8.43461637750921
N          33.52743450808945  -11.75824947288158    7.16733774276402
C          39.36139689237449  -15.29365316519592    4.55848465441014
C          39.83915859494233  -15.93866352808573    3.44783294298973
C          41.15469998563327  -16.42846112548610    3.60060874434334
C          41.65650140017488  -16.14808194138575    4.83603672241103
S          40.55151747483629  -15.28501973841627    5.82970772921337
C          41.88121132894527  -17.19726991701090    2.54235202852259
C          41.35115255711069  -18.62881046976285    2.44988925752729
H          -5.74494881671991  -12.40861888506476   -5.83171793480177
H          -2.09810727544218  -16.85074179710014  -10.05545225768899
H          -0.14173014785311  -15.17179061250498  -10.40053018213597
H          -2.52861704793614  -18.37624228320923   -8.32546356366431
H          -2.08939230178447  -11.08425835705807   -8.55460047676747
H         -10.38163026125315  -14.37007109573143   -2.90994632108722
H          -5.89665703453250  -21.58604505451812   -9.71802673871329
H          -7.02964011396006  -20.41841866191223  -10.42067428727279
H          -6.93868624563238  -21.23274769836147   -7.47389677154448
H          -8.14746679485935  -21.74982379599426   -8.65360860352009
H          -8.04948394446203  -20.05073514335745   -8.17301447660317
H          -3.32009828167692   -8.02226533886133   -4.87132265518542
H          -1.85687304256499   -8.65014205238246   -4.12762183864465
H          -4.69402061133633   -9.60214914150213   -3.47972526390053
H          -3.70341010459749   -8.54294616111891   -2.47432292359616
H          -3.21613264520121  -10.21855778158298   -2.74085849642451
H          -9.13281579294691  -16.01287294711703   -6.10455700477611
H         -10.48420442762878  -15.95999407901827   -4.96159726701463
H          -7.72035139840117  -17.13568124058142   -4.38639451830371
H          -9.18914355049134  -18.06116698608054   -4.70197653591952
H          -9.06054581829524  -17.07847839908433   -3.23839094235942
H         -10.76491713718771  -12.61322969120200   -0.76695407331143
H          -7.88011789971146   -7.80838085600524    3.66198928230382
H          -5.83088192279368   -6.15936543778358    4.33778733910193
H          -2.27865194662056   -5.27141582509762    5.09156351263724
H          -3.93959212813021   -5.22976560418620    5.69740906816400
H          -2.75087858356159   -3.28281429628748    3.65976502737539
H          -3.06068381388664   -2.93349245691033    5.36123857829619
H          -4.41023526741272   -3.24183708129686    4.26234013571457
H           5.03477592378612   -4.77447120815858    2.01290471511106
H          -1.52678781905057   -7.12513278337484    0.44735349177179
H          -0.33118834712172   -9.11277150706764    0.09761846121563
H           1.43780450475222   -4.96619211969571    5.11948213308042
H           9.20840908034130   -6.78716062666313   -1.78634328057408
H           0.51103642032296   -8.65179428541082   -5.19344920822969
H           0.15465546580940  -10.28262834519839   -4.59652880016712
H           2.92407252187472   -8.98069510411071   -4.66013451441130
H           2.33690614416794  -10.20449711275036   -5.79367078824025
H           2.57683088278676  -10.61745885941875   -4.09255765536818
H           3.98855071516288   -1.03613123308103    6.38340789672451
H           4.12118030859425   -0.34323059561602    4.75796277869484
H           6.05116491040815   -2.38759802533069    5.96291424379483
H           6.37100418138187   -0.66432836433267    5.74662871633199
H           6.16551017847064   -1.70891883451795    4.33592567455093
H           5.67183150988166   -6.26002788008252   -2.73392607985210
H           5.88671847832268   -7.90493631857243   -2.15283177245636
H           7.91375883969753   -6.39231875839049   -3.87060467495063
H           6.76778240831883   -7.60165836628434   -4.44746211653243
H           8.05492492991414   -8.07604030941200   -3.34375921415845
H          10.20764406633706   -4.78046089459394    2.47846111995749
H          17.07487633202945   -6.66752065813082    2.30489224552716
H          16.64193187488913   -9.10578443636124   -1.83498175685770
H          19.23526660416534  -11.55925844350677   -2.25801516510138
H          19.87486270644523  -10.17929976328709   -3.13821835819821
H          16.95115512483265  -11.07436234281195   -3.12943563199250
H          18.11556722126875  -11.28638296311900   -4.43432618640367
H          17.57994623067533   -9.66518438925238   -3.99699077314216
H          26.87431545246204  -13.07169082947430   -0.75971790633900
H          21.60848005041323   -8.79291451347558    1.44745896799297
H          25.29818715821535  -10.12281485767350    4.13142385434959
H          23.24830771541824  -11.72939011552951   -3.45200101687933
H          31.80979346760142  -13.84606748916110    0.43508571783877
H          24.13961015559166   -4.90305766407638    3.98883288010266
H          24.16291121130163   -5.63954073576166    5.59978588783131
H          21.74439047940116   -5.54290958898827    3.72146242424837
H          21.97954072286675   -4.52170897484616    5.14456309880171
H          21.75301224375043   -6.26278670230630    5.33446354748369
H          25.76146396053077  -16.41991288859592   -3.81978327760530
H          24.34640273221062  -16.23537920104939   -4.86928740109088
H          24.30719459560817  -17.28269808718563   -1.99089654736139
H          24.15710155489294  -18.27324049049788   -3.44691163348097
H          22.88973515762394  -17.11538418967213   -3.03173486337876
H          30.41872720066801  -13.53680359565722   -1.63515060462678
H          28.80020004869473  -12.83839336702359   -1.56799333540513
H          29.60831060418889  -15.65312667068393   -0.66660650971102
H          28.67509970229333  -15.25526719770204   -2.11229415824064
H          27.98009110741585  -15.00150982596709   -0.50748682146661
H          31.60523108543927  -11.92738225474646    4.87287394443383
H          38.17980962792812  -13.88159320102555    6.74295477585988
H          39.26001233038376  -16.04996933027640    2.54778873124046
H          42.62378082476706  -16.39645768898356    5.22612931005145
H          42.94778469872325  -17.21636914857492    2.77281117506618
H          41.74684060416254  -16.69913543263870    1.57953777293098
H          41.48291245583634  -19.14249537304781    3.39955887317680
H          41.88472414772373  -19.18067159720476    1.67983452435620
H          40.29163847311523  -18.62740804482053    2.20504362437666
