162
 SCF done       -265.683266632143          0.000658117985
C           0.81506555123646   -0.45494657233516    0.04778642323866
C           0.69458316081645    0.95574212167007    0.04623757097575
C          -0.58371715962105    1.55562533797277    0.02329710054495
C          -1.66990005102534    0.68555089055593   -0.02752911405844
C          -1.54666071789394   -0.72533194550413   -0.04055769190057
C          -0.27083614165645   -1.32513021011220    0.00112067418448
S          -3.34637545422404    1.16861141655301   -0.02856395820598
C          -3.86565090929328   -0.50440664675265   -0.04444827188150
C          -2.80794021486824   -1.36607927329581   -0.04553559586106
S           2.48612407374858   -0.94388221608818    0.02446887511308
C           3.01228250853967    0.72387189249412   -0.02683448757108
C           1.95783090508327    1.59274562995824   -0.00369435431419
C          -0.07242982089359   -2.75624433478069   -0.02533498010524
C          -0.77620691629589    2.98767879158471    0.05840467292247
C           0.88510665204961   -3.48060857539948    0.64333255483514
C           0.86036186271825   -4.84848453132703    0.35888497904295
C          -0.11134950689765   -5.20449509956756   -0.54930452651547
S          -1.02124019809676   -3.80358584870045   -1.03989537213497
C          -1.73413050641955    3.72435122247380   -0.59540929171393
C          -1.69326107487949    5.09114680467640   -0.30605951501817
C          -0.70734163771180    5.43556929555513    0.59092211254416
S           0.19388733703581    4.02279549115289    1.06649382505324
C           4.40184131376018    1.02593524943825   -0.09827709712274
C          -5.24895752147367   -0.82854676841066   -0.08420501095917
S           5.58322204873864   -0.24305928724559   -0.10921217443123
C           6.88551577734236    0.91084310103731   -0.24143576957977
C           6.40347310479381    2.21301304764253   -0.26941179787255
C           5.00570206014979    2.26038541668301   -0.18489874917067
C          -6.32394277131529    0.02661395955778   -0.02934186411040
C          -7.57086484741285   -0.60625777197876   -0.12408488852922
C          -7.44820538346662   -1.98233069661060   -0.26048340844223
S          -5.77197074145969   -2.47527288088451   -0.25544948985451
C           8.21287835106761    0.41364390386016   -0.31325243461539
C          -8.44026053776623   -2.98505054167881   -0.41947642291649
C           8.59445951301376   -0.91342056785160   -0.23554260152954
C           9.96382962657176   -1.10991321657427   -0.35441207756121
C          10.68535023560887    0.05738718310663   -0.52886625381627
S           9.60809219774631    1.42783221536637   -0.53538554192044
S         -10.14617698503335   -2.65000535588074   -0.43097177462677
C         -10.54112563742275   -4.32781358238032   -0.69205565761614
C          -9.38217541124763   -5.08071345051531   -0.75688072541387
C          -8.21888172330757   -4.33858104409254   -0.60091335038170
C          12.09142049277819    0.15064963442182   -0.69720969898415
S          13.01496516852978   -1.32466093376021   -0.67608809001398
C          14.51341396885917   -0.46079378354124   -0.94875835699004
C          14.26281679163195    0.89616278012627   -1.03681348522612
C          12.92206644094365    1.25169222183562   -0.89329013999006
C          15.69056177773910   -1.23024289827565   -1.02688375272764
C          16.98518313477402   -0.87420238910657   -1.26965788986554
S          18.21829867291953   -2.13099112197448   -1.27873998345649
C          19.48494351990146   -0.98001359372231   -1.65438241549410
N          18.96120733523868    0.26592350253925   -1.75787880592662
C          17.59565538603270    0.41646902048455   -1.55874269233439
S          21.06046575018315   -1.36905266924039   -1.83631034386685
O          17.05608538833877    1.50278003493106   -1.62916588872526
C          19.77976580402030    1.41211175932973   -2.10202806692977
C          19.99057712212162    1.50569082506858   -3.60785351371720
C           7.29424559384604    3.41126057576173   -0.38000382820296
C           6.55627801601235    4.74358328411710   -0.35387991027898
C          -0.35495912400384    6.70466268735703    1.13579390323791
C          -0.99893934493198    7.85956656099063    0.86296608747937
C          -0.44301540439230   -6.47755476331472   -1.09754398957366
C           0.21741857681215   -7.62299376609029   -0.82449181415996
C          -8.88989626309493    0.10057295163803   -0.09146900339759
C          -8.78353188671758    1.61214310594214    0.06420954882226
C         -11.86300883803283   -4.82376646282749   -0.83520431971870
C         -13.09238667816138   -4.18426420712264   -0.67292551223338
C         -14.15312346744768   -5.05134280311889   -0.90045925245604
C         -13.79033015420164   -6.35025374190201   -1.24143192335684
S         -12.05625213661934   -6.49859765484067   -1.27400610313114
C         -14.72331925098730   -7.36394731124699   -1.51733403775660
C         -14.52276746359880   -8.66344568632660   -1.88115993690050
S         -15.87298643736892   -9.74419018817097   -2.18677385301114
C         -14.79425927752701  -11.07336962727784   -2.57648027730076
N         -13.50277307497849  -10.67393513175098   -2.46076904927248
C         -13.27110306878799   -9.36195806489592   -2.08360439042990
O         -12.14712947939493   -8.91083245319968   -1.94844182122562
C         -12.39351548416691  -11.55964040004131   -2.75591196731504
C         -12.10395186544992  -11.59920835111538   -4.25122207621112
S         -15.29166074875010  -12.56862924862121   -3.00206853898147
C          12.47098650023735    2.67414033531898   -0.99544194697853
C          12.02682964834196    3.00530422712353   -2.42119063366712
C         -13.29906081632429   -2.74142335226123   -0.33498862091582
C         -13.27297636574043   -1.87505510322648   -1.59583358550328
C          -0.10017943032229   -8.90022229596155   -1.37200890450696
S           0.86932718416430  -10.27996414360841   -0.92250688547881
C          -0.07059969858123  -11.33665423270907   -1.91963353664026
C          -1.06458039991034  -10.65000725368052   -2.55389208026713
C          -1.08819587679877   -9.27949648221139   -2.24836389730772
C           0.27588831265860  -12.78064106804098   -2.03310882079043
C           1.55103867207213  -12.98240739065009   -2.85510897176868
C          -0.65923803821579    9.13394593077610    1.40416295454137
S          -1.61012342801378   10.52637763386293    0.95312426143154
C          -0.64880643425443   11.57363317800569    1.93994175603255
C           0.34154990281931   10.87588162860112    2.56759269851041
C           0.33983892124659    9.50280396165938    2.27227647536631
C          -0.92755669871705   13.03576304376658    1.99172086581344
C          -0.52955087002551   13.72496168043165    0.68452537496431
H          -2.94434287078307   -2.43186647131549   -0.03813249338124
H           2.08452374156448    2.65793155627145   -0.04268624366259
H           1.56308421629762   -3.03983509479568    1.35200217437214
H           1.53475434953582   -5.55369122879119    0.80882916116231
H          -2.42461353843863    3.29258591842218   -1.29730216832177
H          -2.36670440035698    5.80424876050567   -0.74501499210352
H           4.43798407645384    3.17132468933785   -0.19037606378385
H          -6.18921578647168    1.08753793973975    0.07601933791426
H           7.88280244529017   -1.70805590627144   -0.09842587538845
H          10.43611001277201   -2.07580402040794   -0.32022072283650
H          -9.40108931005711   -6.14449743774583   -0.91391810633264
H          -7.22903396349010   -4.75895180997103   -0.62261239928958
H          15.04835403813342    1.60937887053769   -1.20340952464784
H          15.53420930107233   -2.29178194969124   -0.86807917916738
H          20.73860822765927    1.30953581349963   -1.58877652420288
H          19.24832585539800    2.29308467277902   -1.73478379504205
H          20.50973156437806    0.62210592336315   -3.97123657911674
H          20.59049866415445    2.38115071067882   -3.83738478087716
H          19.03387581410973    1.59181175555941   -4.11786972353646
H           7.86815260186341    3.33647185809955   -1.30977328690953
H           8.01943622754734    3.38540065583098    0.44009078628227
H           5.86511757074188    4.82024240235505   -1.18984308838034
H           7.27247511727730    5.55823958023502   -0.42910735876564
H           6.00245066088467    4.86100739716006    0.57455663890815
H           0.48596610729435    6.70752630955546    1.81496475712821
H          -1.84314900076863    7.85130259893376    0.18780906647482
H          -1.28095431851390   -6.49122051267430   -1.78014617941280
H           1.05817369922322   -7.60374653197712   -0.14526081042920
H          -9.48476750311348   -0.30565472544838    0.73329153788718
H          -9.43382519695692   -0.12874672236669   -1.01381911896507
H          -8.28230342508255    1.87170241131711    0.99356665889293
H          -9.77972284988795    2.04771852009606    0.08099966884490
H          -8.23455217749201    2.04912426624371   -0.76642043431590
H         -15.18422529351700   -4.75236889075974   -0.82074380591870
H         -15.75811102775971   -7.05171784542326   -1.43034734207053
H         -12.65008155776992  -12.55666095702230   -2.39020293908890
H         -11.53205670446150  -11.16778305441107   -2.20998324109510
H         -12.96874147810812  -11.97500746540859   -4.79290553040492
H         -11.26114286692586  -12.25733966762042   -4.44076733338175
H         -11.86054393877093  -10.60333190326014   -4.61451364397028
H          13.30648415036007    3.32079838114137   -0.72299298436956
H          11.65150122708678    2.86522651697162   -0.30039958291275
H          12.85121858663516    2.85311631669416   -3.11361403457580
H          11.70632097426486    4.04183473743471   -2.48304275726552
H          11.19920094631266    2.36885594037842   -2.72445794393878
H         -12.52914081611521   -2.40079098644673    0.35910848382956
H         -14.26884529949776   -2.63171335432485    0.15435119472328
H         -12.31840232094178   -1.97163244205071   -2.10661058745155
H         -13.42282709317983   -0.83004993434758   -1.33716799115690
H         -14.06128621398592   -2.18194882139031   -2.27938434510439
H          -1.76484203029254  -11.12082228990346   -3.22179535585665
H          -1.80800963070188   -8.59538960455430   -2.65947686641070
H          -0.55550090865692  -13.30554983561197   -2.50847995614181
H           0.42372075846438  -13.20349410672568   -1.03617245989522
H           1.42243862254359  -12.58060486690169   -3.85768040288420
H           1.78709951120026  -14.04077192800306   -2.93139668789049
H           2.38725870688732  -12.47175963797309   -2.38286536142800
H           1.05220492899414   11.33910067988525    3.22983658159855
H           1.05002944858178    8.80962316371115    2.68504442804893
H          -0.36801995323172   13.47083329075464    2.82260862063392
H          -1.99285612209362   13.20125185666423    2.17178154591883
H           0.53152077447876   13.58481285972828    0.49059534428394
H          -0.73538148269109   14.79077686808801    0.74246101566984
H          -1.09125883447693   13.30610223724937   -0.14740225176024
