158
 SCF done       -263.726094287259          0.000484195454
C           0.98525817568515    1.19939382964988   -0.07424597127677
C           1.22019532911552   -0.16639876920506    0.21951871160875
C           0.20901130397722   -1.11659864742512    0.31202781056513
C          -1.10417933720114   -0.64942462902399    0.10173577206228
C          -1.34022524301827    0.71847315135178   -0.18106192440714
C          -0.32798273015399    1.66701591602869   -0.28229426414835
C          -2.30647750094777   -1.39605315423133    0.11354050684216
C          -3.41488481872189   -0.66070396873173   -0.18325323090621
S          -3.03556884167450    1.02630501041149   -0.45379685537043
C           2.19193455869643    1.93641224198473   -0.13599536491999
C           3.31064732289593    1.18153493464014    0.05526364029355
S           2.92696006017246   -0.49745174252316    0.37117504847600
C          -0.62552308962859    3.04526446257503   -0.61476586160259
C           0.50608792107949   -2.50703902026280    0.59072631708716
C          -1.68198371115915    3.80196178881114   -0.18935034812016
C          -1.69286509095297    5.10265532261609   -0.72972694333896
C          -0.66132697943828    5.34482699549870   -1.58356568125743
S           0.36100469236230    3.95430305521818   -1.72734284011350
C           1.42971014172415   -3.00836182000224    1.46535576030036
C           1.47010375247279   -4.41624196286354    1.49052565498897
C           0.59684576196508   -5.00047475752132    0.62556463770646
S          -0.30773926482243   -3.80459178826061   -0.24050492988963
C          -0.32303082321292    6.60172205490795   -2.30796919976943
C           0.94455152319408    7.24470963402142   -1.74104666985326
C           0.32888917340299   -6.44884498205814    0.40229003708982
C          -1.06890646217106   -6.83805427178899    0.88867920991104
C          -7.04223752497333   -1.21517078679445   -0.70032757929956
C          -6.76630141507330   -2.58941010296349   -0.48443394363406
C          -7.72742829044457   -3.58965298992263   -0.56685233150134
C          -9.05027490297167   -3.16198627988877   -0.82710256035812
C          -9.32752662453704   -1.78392371561652   -1.02916713790412
C          -8.35394944423210   -0.79131837115487   -0.99537031397653
C         -10.20841519565699   -3.95968171252018   -0.92169570088402
C         -11.34565749219542   -3.25595541303193   -1.22640212939043
S         -11.01290015545446   -1.53063370363364   -1.36987314159710
C          -5.87745554055232   -0.42066934528375   -0.57971168689070
C          -4.74935147027056   -1.13929441073034   -0.31415456055902
S          -5.07089463411289   -2.85238778918380   -0.17554007141841
C          -8.68302812151491    0.59156280745568   -1.27541109876600
C          -7.39923626412397   -4.99153978387435   -0.43087978710963
C          -9.79879549463991    1.28632872478610   -0.89945721181552
C          -9.82173909004832    2.61006158345791   -1.38032243239055
C          -8.73952730218236    2.93096118966938   -2.14035387971264
S          -7.65103858733807    1.58955680864101   -2.26400394606764
C          -7.89215055197556   -6.05589983376692   -1.13659691339985
C          -7.32717723044700   -7.28690230828077   -0.75449338249540
C          -6.40486225163350   -7.17724958050102    0.24126878585343
S          -6.21103768969083   -5.52673189881329    0.72791479358455
C          -8.40176057161604    4.23232994771115   -2.78154229700542
C          -7.23618813131052    4.91738357014608   -2.06464257289141
C          -5.63613509940374   -8.25672989996383    0.92170972218262
C          -6.16987265433028   -8.51304678819416    2.33265625694819
C           9.03850857601449    3.49266908101640   -0.52345368236381
C           9.30975597712248    2.12695326877770   -0.24937704840847
C           8.31939297764209    1.17331562709031   -0.04304261770270
C           6.98941202367238    1.63635126200683   -0.07113515342486
C           6.71742030155716    3.00129595578945   -0.33994854047736
C           7.70307771837163    3.95026075613570   -0.58408917414565
C           5.80219390594448    0.89039551503270    0.12956568472311
C           4.66246768466151    1.62393395913748   -0.01796170282656
S           5.00056306859363    3.30308474850632   -0.38482976662864
C          10.22489939133851    4.23282194267672   -0.70270281023722
C          11.37007188836109    3.47973690992564   -0.60960076934728
S          11.01927843619770    1.79882530280246   -0.26746303080155
C           7.35426727305957    5.31652578954701   -0.91195287006113
C           8.63049085084843   -0.22762091432266    0.15489661068869
C           6.34465490413340    6.07580787144521   -0.38738861342586
C           6.23577661182103    7.34843872660745   -0.97946850036099
C           7.14877528591895    7.56963146680702   -1.96459078979509
S           8.17893356352918    6.19323895374591   -2.17313814251296
C           8.01333859822931   -1.31806932375334   -0.39204035406303
C           8.59297009805626   -2.54016197615170    0.00089785770303
C           9.64820470771897   -2.39225719658236    0.84802057860826
S           9.95228572284155   -0.71925933091637    1.17674318776709
C           7.30307444234458    8.76671403986884   -2.83730763644837
C           6.76206069414680    8.49809402757219   -4.24350828284672
C          10.47630740424073   -3.44717395106412    1.49593413160222
C          10.14615685428661   -3.57680984634658    2.98437401977362
C         -12.68832357308402   -3.65747402558509   -1.41947610910019
C         -13.24570947431428   -4.89507183563648   -1.52184032654638
C         -12.64571164531237   -6.22665187202621   -1.53083873809640
N         -13.62285199814019   -7.19008943026540   -1.72867908987215
C         -14.90776049425561   -6.77592065476612   -1.85865447680549
S         -14.98629117627038   -5.02755575538369   -1.75150860274299
S         -16.19993976573391   -7.74459927535001   -2.09339039742298
C         -13.26484679139471   -8.59497581246146   -1.76638990929995
C         -13.46290303767987   -9.25300334970268   -0.40687467299209
O         -11.47348450342454   -6.51963011102538   -1.41404624838433
C          12.68857805424547    3.96201839914699   -0.77214230189062
C          13.84279147119561    3.25425780055826   -0.71079610179755
C          15.14918643623727    3.88192132731637   -0.92110015868503
N          16.15498641228741    2.93672578598130   -0.80716385661341
C          15.77977001781303    1.66241633968205   -0.53548960496094
S          14.02603130282855    1.54718225230117   -0.39430450820571
O          15.35162501870210    5.05207756923220   -1.15577672891008
C          17.54236823073452    3.30883295299609   -1.00623833836685
C          17.99781956644300    3.00252604303535   -2.42733327951249
S          16.78795054430406    0.39474596931224   -0.34671122759147
H          -2.36609268269899   -2.44640594271135    0.33148158979682
H           2.24661221121076    2.99355809367398   -0.32020695765140
H          -2.40895647015165    3.45289613212066    0.52138873601805
H          -2.44497756621717    5.83414676078851   -0.49218645547692
H           2.03453866861522   -2.38927395666991    2.10305886642793
H           2.12730342521881   -4.97620697450062    2.13212133747773
H          -1.16182567088446    7.29506055623240   -2.21724693756581
H          -0.16998995843545    6.38637521848135   -3.36871576488399
H           0.81246700828371    7.47396512206910   -0.68589209225381
H           1.16979292218590    8.16621520902212   -2.27209077308096
H           1.78958237065886    6.56731327451999   -1.84446209435927
H           1.08243691129460   -7.03077735435465    0.93715323497275
H           0.41212426211225   -6.67905437998756   -0.66327360920532
H          -1.17267361661557   -6.62683697181828    1.95076099718772
H          -1.24175088686045   -7.89911198914824    0.72582461495835
H          -1.82651826996742   -6.27384788649686    0.34878105611528
H         -10.21788939373887   -5.01851671006540   -0.75193795911370
H          -5.86101596244002    0.64915751721727   -0.67869532350889
H         -10.56319296652261    0.87670747240559   -0.26427073574397
H         -10.61945666072199    3.30043210776120   -1.17055542088789
H          -8.60857001351094   -5.96148048164265   -1.93175177485858
H          -7.59555159387482   -8.22384244863884   -1.20925319379851
H          -9.28303493841382    4.87655258339265   -2.75309424474932
H          -8.13065324790122    4.06856309161816   -3.82766054471632
H          -7.48989268189069    5.10345112157148   -1.02340041537544
H          -7.00545680384462    5.86646145606220   -2.54193636704522
H          -6.35044109599384    4.28665870684365   -2.09768913218266
H          -4.58240428072330   -7.97343830992945    0.98430161102395
H          -5.71230523789395   -9.16995555502622    0.32783290134023
H          -6.08536850047041   -7.61161023740419    2.93519061409678
H          -5.60341224180866   -9.30745038003461    2.81202566254694
H          -7.21654635901609   -8.80581003555633    2.29346462879258
H           5.78673342109124   -0.15323357457388    0.38605057291578
H          10.25142449395231    5.29060489595198   -0.88977633880645
H           5.72185822102867    5.74841563719476    0.42517042279840
H           5.50346046465575    8.07778904879847   -0.68149103793097
H           7.19935196066063   -1.24614278757292   -1.09123029309505
H           8.24161026178258   -3.49760807687288   -0.34133288717538
H           8.35867996486075    9.04016953763507   -2.90647157643199
H           6.76084193344921    9.60128930829218   -2.38778564470465
H           7.30470429585027    7.67602552427012   -4.70479719674960
H           6.87455453420941    9.38208986713295   -4.86594951734540
H           5.70779341846222    8.23425027820211   -4.19887342094457
H          11.53502444639305   -3.20105340943930    1.38495422293743
H          10.29040094109101   -4.39840108776351    0.99276826892544
H          10.34077183344906   -2.63657863086671    3.49519938760362
H          10.75596754463120   -4.35306659516926    3.43943711054168
H           9.09758638074569   -3.83303298627375    3.11887160639345
H         -13.38366510101682   -2.83114033586218   -1.52021239469062
H         -12.21397644182466   -8.63833414504266   -2.06218560599855
H         -13.88824047845961   -9.08170319216906   -2.51993667013419
H         -12.84822034169372   -8.76135705803795    0.34365287667931
H         -13.17636202663899  -10.29889423834505   -0.46477157311525
H         -14.50655105537636   -9.19358095673286   -0.10770065901429
H          12.79646200603195    5.02003471233128   -0.98133297475907
H          18.14881151026218    2.75687485146979   -0.28431084327522
H          17.60423197104309    4.38146730503665   -0.80813629910591
H          17.92958081598820    1.93532981000735   -2.62423111167652
H          19.03031759888592    3.31483082149350   -2.55285212866565
H          17.38001909848359    3.53762688287619   -3.14470815849150
