314
 SCF done       -488.425444765800          0.000993695512
C           6.31279133059856    2.45462031191076   -9.65387486058209
C           6.84514093839789    2.98638174082195  -10.84178006661945
C           7.97636974967812    3.83281604256540  -10.79879329331703
C           8.62222292629378    4.18654302598409   -9.61790050689408
C           8.06261561312873    3.68881901173039   -8.42508791141120
C           6.92631892013862    2.84542102266320   -8.46932561860962
C           6.37825631427746    2.80036110526966  -12.17683189191705
C           7.13054541551800    3.44312029599333  -13.09186196745602
S           8.44970458829378    4.32645584939141  -12.40349812147342
C           8.47957741838610    3.93436158044912   -7.09354155304292
C           7.73390184369739    3.28865098404300   -6.15377922934710
S           6.44617784326212    2.34114057969434   -6.87026217595495
C           5.19657399366679    1.52902862131702   -9.67203336497970
C           9.80518425252887    5.02203871701707   -9.61056471019335
C          10.06782860156077    6.13922241473352  -10.35850585287159
C          11.30390162293497    6.72969809234704  -10.05023310666505
C          12.02055518556917    6.07300675224166   -9.08462235774436
S          11.13760230407089    4.67501866952626   -8.55414095943411
C           5.01189988491225    0.44731559266701  -10.49063065108894
C           3.82888130069810   -0.25577808214574  -10.21200430493479
C           3.08458888696030    0.27321121699384   -9.19089324056348
S           3.87922610145541    1.68063387445218   -8.55353470427249
C           7.90486352600756    3.33265991745966   -4.74081115049904
S           9.20978085024664    4.22760902687865   -4.02177941422507
C           8.67449223897243    3.80044826584362   -2.42243213773080
C           7.56523952932818    2.98753013290545   -2.47763943213716
C           7.13465101493099    2.72183196812888   -3.77874099447544
C           9.41408469173559    4.27331325680090   -1.28162070302922
C           8.88700768610636    4.51067931516720   -0.01688127805046
C           9.66103823949513    4.92704228588456    1.08833741919912
C          11.03757660199992    5.12986419939936    1.02185076944248
C          11.57674917731839    4.94555299537360   -0.27392442062219
C          10.79705588104369    4.54527731157607   -1.39232521115117
N          12.83681861771904    5.09030227405027   -0.69889480208055
N          12.78897109711709    4.80183881542167   -1.96881914807057
N          11.62262518083825    4.46980984954289   -2.44642986871349
Cl          7.18618403392646    4.35738666177500    0.23935452714655
Cl          8.79491578566199    5.22046711122282    2.54990853623806
C          11.91632178232630    5.51004173973335    2.09247117637113
C          13.96678803264976    4.84176400524005   -2.78859836060712
C          14.62822773085909    6.21131002740953   -2.69977055971707
C          11.72294830633879    5.51800385810281    3.45798434772680
C          12.82867241414815    5.96274285175601    4.17879499151920
C          13.89953956172388    6.30325993917308    3.37979523981287
S          13.53123923320552    6.04326078486253    1.70574906429095
Si         13.61450061000732    6.48438382692833   -8.22144721975717
C          13.94367027020619    8.32712294787948   -8.43398332994956
C          15.20036198146706    8.82079771189757   -7.71064258330821
C          13.36584423642177    6.02365444935847   -6.40625050539286
C          12.20859368646502    6.76316997447306   -5.72395883616949
C          15.01186895918335    5.44297317925598   -8.94501784037056
C          15.24654625019657    5.67589527311877  -10.44173436138503
Si          1.47147532533286   -0.28180983135196   -8.44858380049951
C           1.20299120952224   -2.08170166854099   -8.94076733532975
C          -0.07893406007284   -2.69611056532134   -8.37040144296110
C           1.59528988688408   -0.08124368657259   -6.57814082918576
C           2.75699528296988   -0.84976550807757   -5.93821440194745
C           0.08838445487479    0.82096943459350   -9.10839064853500
C          -0.07882985795088    0.77045651674850  -10.63110997104594
C          17.38770461691864    8.17813513158143    6.41940866075868
C          16.78428073328445    7.67562593412008    5.24982970746490
C          17.53488923722624    7.54491738629946    4.05587569519624
C          18.88455330733184    7.87238041957271    3.96291856626851
C          19.48448752009838    8.39687605243333    5.12658265075480
C          18.72472498654320    8.54177799324327    6.31334980711625
C          15.44283682488562    7.26198863188879    5.07853611955142
C          15.15894899022223    6.80064946643100    3.82593087237949
S          16.55477259143478    6.88139007952721    2.77223104266867
C          20.81702219808318    8.84510589881484    5.30127901323328
C          21.09037679152689    9.28459792177439    6.56331545217117
S          19.69273437548408    9.17937272845709    7.61381820539103
C          16.67133038088218    8.30339258085866    7.67227717688416
C          19.62805410671067    7.65855372982563    2.73775357656873
C          19.20589721730078    7.86251447591323    1.45029719995384
C          20.17120251099902    7.51656010004807    0.49292639485871
C          21.34104375920487    7.02846154649063    1.01521173954899
S          21.24020895433353    7.01046244572814    2.74954126817597
C          16.74615717028267    9.31915381847086    8.58825587413189
C          15.92472604822004    9.11562529464562    9.70757141775373
C          15.21392787864613    7.94415978886425    9.68788469854815
S          15.58428326130787    7.07013865188055    8.23218054422940
C          22.31578616098490    9.80176010001120    7.06910938711216
S          23.72351824579335    9.95068595798500    6.06451245073637
C          24.64156755903745   10.63356146412671    7.37916109726349
C          23.87725354961317   10.70071488565432    8.52329340345911
C          22.57476428084600   10.23302222644539    8.35064491298732
C          26.01287691133153   10.99614156621975    7.14761876941597
C          26.77119228049858   11.90098783317168    7.88454690883393
C          28.12790884569608   12.18498472289230    7.61126897981997
C          28.84251042733507   11.58728868123023    6.57679526507176
C          28.07062388090440   10.70282449278348    5.78550109892825
C          26.70628067827785   10.41958888555047    6.05785401711607
N          28.41674063775799    9.99002588962240    4.70615624524485
N          27.33203440841859    9.34520882856356    4.37921827217540
N          26.28715551161183    9.54838404384213    5.13053967773819
Cl         26.04255588237482   12.78995450039116    9.17134381660355
Cl         28.87625658225932   13.37815138577108    8.60658799849028
C          30.22234570570283   11.80055862305542    6.23744216113137
C          27.28129410714281    8.48645740126052    3.23124991299117
C          27.21850057912097    9.31062424769057    1.94961487478985
C          31.26881012763551   12.32701876612304    6.96402387987311
C          32.47667120236915   12.35705347932103    6.26561167103161
C          32.37828200246782   11.85397157105452    4.98878150247009
S          30.76291235551150   11.31203302600706    4.65448395398316
Si         22.85677299499016    6.40234206181897    0.13765132531314
C          23.19995457499489    7.53459977124793   -1.33264084537041
C          23.50954218881323    8.98697310941146   -0.95259207562593
C          24.29942622498604    6.43452778034529    1.35188335293300
C          25.62343632706162    5.92607139360885    0.77252746343674
C          22.53957758700648    4.63602703859913   -0.44880022244715
C          21.26835822370114    4.47145579442165   -1.28849904235143
Si         13.98732467940380    7.24364739217549   10.90028540051300
C          13.83128219431233    8.44109897201460   12.34710571224412
C          13.05346562895513    9.72443464329099   12.03887685530225
C          12.31357686585218    7.04229781885883   10.04669110039187
C          12.26614036898106    5.96326118778334    8.95936365792953
C          14.64642497686619    5.57301706126626   11.47965403386565
C          13.71752155673603    4.81150234255984   12.43112986095594
C          34.66365016455505   10.74826029596440    0.68742009613091
C          34.46499879166892   11.22214120538988    1.99918973647185
C          35.53631469060549   11.79742797336283    2.72476276795013
C          36.81605754617588   11.93498392223285    2.20292657652618
C          37.02675730890676   11.40927791925363    0.91235275575455
C          35.95637570583730   10.82948685842228    0.18835926376304
C          33.27227417361386   11.18900582014191    2.75869611729846
C          33.39595253792748   11.73790053173197    4.00147586043900
S          35.01895658199962   12.32543698561314    4.30445915883085
C          38.23811016473211   11.35903055830432    0.18514748247330
C          38.11605822867384   10.80489050141043   -1.05570095383716
S          36.47476055022035   10.28986538080741   -1.38820228671761
C          33.55307479051771   10.22050839985346   -0.07991913422283
C          37.89103456652655   12.58941433965064    2.92087235188829
C          38.81323521472842   13.47342512768282    2.42563108285766
C          39.73093334403949   13.90817529815514    3.39364383942040
C          39.54169825862931   13.36481816866941    4.63742692615323
S          38.16902199898261   12.29946687359834    4.60913982313947
C          32.29684696126674   10.75189631853618   -0.20272694585128
C          31.45150584592349    9.97707603377101   -1.01120227981131
C          32.03328942440420    8.84203951937693   -1.51300877727671
S          33.68338258294442    8.74229911223920   -0.97653122031037
C          39.15567070292941   10.65105786599181   -2.01515873630697
S          40.74077953389298   11.27452821955840   -1.67716357529731
C          41.33723961539739   10.72993261092325   -3.22090013036456
C          40.32999789981045   10.12068645134422   -3.93787818565282
C          39.10673771325605   10.07948666307161   -3.26522822410168
C          42.71517084801521   10.99220536693348   -3.53821724787039
C          43.48172816942491   10.40437661177509   -4.53948374176959
C          44.83483099314459   10.73916045356148   -4.77747271295858
C          45.53393114555588   11.68401054270529   -4.03683553925201
C          44.78622317177800   12.26404870241393   -2.98722448402849
C          43.42566933074855   11.93171187364282   -2.75268526071194
N          45.13698597111119   13.17770020854536   -2.07070221359341
N          44.05943126910897   13.35585914440468   -1.36125229576679
N          43.01357288159532   12.65912210549172   -1.70739438450956
Cl         42.81340813611157    9.16632604346650   -5.53587025097208
Cl         45.64282934359765    9.86182644897634   -6.02507467808617
C          46.90618060158486   12.08119850069268   -4.23438087592135
C          44.02254862819958   14.26860668893218   -0.25373190843535
C          43.61031244843333   13.54392667010220    1.02152010252396
C          47.67862983001587   12.09441373462995   -5.36806111983438
C          48.97874815389215   12.58163261498844   -5.14689719563251
C          49.19271816360429   12.93363165048488   -3.85085829277312
S          47.80303566377276   12.70060675364383   -2.87529027068227
Si         40.46684621191022   13.65693400744870    6.22500957306969
C          42.18139473172513   14.31186604919489    5.78690814056411
C          43.06455029481811   13.31664407715001    5.02625195486040
C          39.51180787574351   14.92415630720383    7.24760799938708
C          39.20020806191338   16.22600305461647    6.50070808106882
C          40.57337763918202   12.01870952139806    7.15008744104058
C          41.31932235978023   12.08685880418346    8.48647525708109
Si         31.29379153074310    7.48921842262982   -2.55385957936686
C          30.04275227582544    8.27793490971840   -3.72507274581136
C          29.36190758278229    7.28302287416203   -4.67051818545165
C          32.67643999832261    6.62656534090971   -3.49727787914019
C          33.43651834639699    7.53346532037034   -4.47166822674041
C          30.44181740360868    6.25747663049254   -1.40057777275678
C          29.34643111540446    6.87449066225717   -0.52397327853926
H           5.50479906106899    2.22438061367796  -12.42132558064938
H           6.99606753108509    3.47164811549369  -14.15547678359422
H           9.29540591377718    4.57736773383469   -6.82005585945160
H           9.37415476093604    6.54780458571133  -11.07134604836220
H          11.66043205204283    7.62972558744559  -10.51893459228284
H           5.72661735249020    0.14562158926521  -11.23621743711468
H           3.52758703050676   -1.13965539890542  -10.74571134199007
H           7.09453398998804    2.56570797314528   -1.60978643691565
H           6.28552926432587    2.10651148032293   -4.01888141511081
H          13.65064025801175    4.60684108052336   -3.80569795956622
H          14.65911580039801    4.07259668892927   -2.43321281306970
H          13.96851650207964    6.98029678852114   -3.09303007523637
H          15.55015989031002    6.21251270367756   -3.27405241880453
H          14.85651429239477    6.44042672231372   -1.66206260321742
H          10.82089717301895    5.19039487662457    3.93630028494116
H          12.84973258925954    6.01790467629774    5.25181119613036
H          13.09189826052200    8.91129139470877   -8.07623249339632
H          14.04459003921146    8.57426413793129   -9.49358973735386
H          15.12040878267492    8.64426418801010   -6.64108142937166
H          15.34650532399544    9.88706911744273   -7.86990986247905
H          16.08111622281026    8.29868678279394   -8.07564073466139
H          14.27654473547144    6.19588403937027   -5.82725337459306
H          13.16393424800977    4.95058542865802   -6.33694694997062
H          12.42870043226915    7.82459816730075   -5.63985492486468
H          12.01633231606304    6.36613411280178   -4.72952847599592
H          11.29598678113186    6.65514312867304   -6.30423728523098
H          14.80103758172092    4.38009138551533   -8.79711278309178
H          15.95018912708788    5.63349737244440   -8.41772980614601
H          14.33832722084936    5.47153718119556  -11.00370564134318
H          16.03555820956025    5.02762801732952  -10.81699881203311
H          15.53524134875930    6.70731098380964  -10.62779945286115
H           2.04804899739860   -2.69630165806563   -8.61957808179147
H           1.16750855008844   -2.17717046026980  -10.02896739591100
H          -0.06384295713563   -2.67170725976413   -7.28380798269602
H          -0.18757608374067   -3.73173438323455   -8.68652110058519
H          -0.95114900145112   -2.14315252284999   -8.71000313122337
H           0.66785606202648   -0.39476893955419   -6.09194679418619
H           1.71634205130402    0.97676277368950   -6.32940123560299
H           2.65551555501693   -1.91766080034737   -6.11521010406162
H           2.78584919879937   -0.68256586045419   -4.86361268231470
H           3.70480754140137   -0.52310940922665   -6.35945596434789
H           0.27323834898123    1.86034642337770   -8.82280753274452
H          -0.86788310064299    0.55555671387861   -8.65046372767746
H           0.84893001272245    1.05251594643554  -11.12349701090330
H          -0.86217241622847    1.45064459653607  -10.95876340211452
H          -0.34221926887290   -0.23351077736904  -10.95410836447762
H          14.70125482046765    7.32533900841772    5.85132577590573
H          21.55900954703525    8.85748042724613    4.52415856784910
H          18.24646112370911    8.28037059139585    1.20335549097495
H          20.01589977295621    7.62589665998244   -0.56585164731460
H          17.34244885272633   10.20191941272198    8.44240226003275
H          15.85453505514660    9.81804778580161   10.51858422046724
H          24.24883725071942   11.04662949197179    9.46867320633865
H          21.83666179832520   10.20713170719778    9.13284549384426
H          26.39180428516189    7.86440301303550    3.34117408261404
H          28.18095541622499    7.86682290019701    3.23296506676923
H          26.32168614844376    9.92552653748406    1.93946235574398
H          27.20358935673380    8.64812012741601    1.08943991052686
H          28.09037502364301    9.95646722682240    1.88280774232789
H          31.18171386797338   12.65906363766628    7.98048721725056
H          33.39871592144627   12.73194532668970    6.67379539583877
H          22.34440306186325    7.53932654972205   -2.01245582244655
H          24.03673541750745    7.14812915827973   -1.92023427987411
H          22.68653102367356    9.41297339420090   -0.38383039747472
H          23.66465734535541    9.59607288010454   -1.84073162204778
H          24.40743078866242    9.03974270868888   -0.34204614000948
H          24.05784106258572    5.83314101008177    2.23230539710244
H          24.45277207268720    7.45003854450249    1.72632929884795
H          25.51879164807753    4.89918609379874    0.43230026709202
H          26.41552201050464    5.95745386449915    1.51805507553084
H          25.92806017496044    6.53317598606121   -0.07642188904927
H          22.46556241582002    3.96268973805123    0.40969754481192
H          23.38421108793250    4.27292753419497   -1.03980858881044
H          20.39589494065378    4.78702275448172   -0.72166840935152
H          21.12993467179400    3.43325975096094   -1.58224335863017
H          21.32551821590511    5.07584455703478   -2.19029278860603
H          14.82207112271045    8.71934681636727   12.71475140100064
H          13.33724796267074    7.94595580261698   13.18616481863435
H          13.50418392505369   10.25777953134183   11.20578049655434
H          13.03980020629248   10.38570408476128   12.90293337433413
H          12.02590003014680    9.49084075249185   11.77311946119715
H          12.01096327101499    7.99007464046119    9.59139750547733
H          11.54121058275979    6.81108347063028   10.78597064268635
H          13.00950669797278    6.16387522447084    8.19143279854025
H          11.28544120717527    5.93142911137464    8.48882853554989
H          12.47602860392456    4.98323737018460    9.37959707226370
H          15.61140808923382    5.70126134433532   11.97863748628542
H          14.84797275497063    4.93515725918441   10.61451227769586
H          13.54003959122334    5.38879897189901   13.33510209844572
H          14.15523957396733    3.85737132520419   12.71729001253636
H          12.75790364203600    4.61796337643838   11.95860047229203
H          32.35308840668042   10.75204545772648    2.41325516094091
H          39.18258337319036   11.69946592798377    0.56823150070999
H          38.80254596350442   13.82803714094674    1.41002768292469
H          40.51905138395753   14.60995904335694    3.18529948769279
H          32.00839017498727   11.68705917846584    0.24418457075080
H          30.43230654536307   10.24502390194318   -1.22710877687163
H          40.45469356657314    9.73501242365252   -4.93124221343594
H          38.21040421021849    9.64649796125894   -3.67337905371773
H          43.30169463177364   15.05942924646297   -0.48195687696687
H          45.02207118713302   14.69769151148178   -0.17023470152781
H          42.63977066701091   13.07583650772955    0.87996798635581
H          43.54854081385454   14.25095242452492    1.84327231692504
H          44.33591737583630   12.77572707813494    1.27595058989068
H          47.32352263357939   11.79732274047983   -6.33653159007841
H          49.72098821822819   12.66472520174475   -5.92052168066021
H          50.08824878737367   13.32408744718644   -3.40958076685666
H          42.70982125040574   14.61112334047723    6.69544804929287
H          42.09761090524207   15.22168016977679    5.18687354702167
H          43.25570631700778   12.43667907117209    5.63453447272843
H          44.02203525750097   13.76500474302586    4.76752455659945
H          42.57501758301258   12.99372384365388    4.11057286129478
H          40.06122031553336   15.17863680438972    8.15752612996790
H          38.56418769383994   14.49296747028688    7.58232591778842
H          40.11878670852158   16.72721848496055    6.20608730978366
H          38.62688077806666   16.90500977578926    7.12798887710248
H          38.62324179537948   16.01862082730943    5.60262126298435
H          41.05841370433827   11.26285167491064    6.52656773121837
H          39.56669389940480   11.63600172773855    7.33939866328379
H          42.34319801220862   12.42061981656176    8.33690628389727
H          41.34579366253728   11.11037157444224    8.96539666850261
H          40.83007644311903   12.78408651405134    9.16172794686708
H          30.52287804601011    9.05086917306790   -4.33082944839428
H          29.26302392508025    8.79410673015757   -3.15917749477928
H          30.09871295928481    6.78193016062950   -5.29282862242427
H          28.65297886561729    7.78944188657888   -5.32254861630446
H          28.82431656989122    6.52567057953109   -4.10534625421680
H          32.28715276459967    5.77242112029227   -4.05747632850480
H          33.40104675477875    6.21123558226506   -2.79156115306512
H          32.76667430475642    7.92944268751383   -5.23097715678712
H          34.23157939226687    6.98366255992861   -4.97075718986413
H          33.88328585646202    8.37052620181741   -3.94073564264741
H          31.17832402827872    5.79037224492560   -0.74103372313069
H          29.99926787150926    5.43888565367849   -1.97357682810926
H          29.75913301077767    7.67133308779660    0.09031655236364
H          28.90496320283380    6.12542178962846    0.13022325871988
H          28.55706177954153    7.29510421589621   -1.14228630937443
