314
 SCF done       -512.744546848260          0.000904156696
C           4.81255670063979   -3.86751657420136   -3.73079452830520
C           5.43782150105743   -4.78828357000285   -4.59128199610256
C           6.81685066634524   -4.66393536270536   -4.88310880294393
C           7.61724770901229   -3.64807350503532   -4.37159933567799
C           6.99938338899667   -2.74219277338925   -3.49036173630398
C           5.62072031837363   -2.86874042891358   -3.19550698934412
C           4.86688899927371   -5.91857270880468   -5.24705483199505
C           5.75514958586015   -6.58979720899518   -6.00735796945739
S           7.34501580495151   -5.91140482838774   -5.97888535635479
C           7.59417240036732   -1.66220884344568   -2.79168997272930
C           6.71652762022547   -0.95357873284250   -2.02703730213291
S           5.09085136250075   -1.60396918054458   -2.11904473042705
C           3.40249739303196   -3.93429091118315   -3.39718774018023
C           9.01653688364421   -3.50159316507967   -4.71861406165094
C           9.68191484123384   -2.34648679828045   -5.02680195444021
C          11.04619715458296   -2.57239626880952   -5.28275194886409
C          11.46009544360211   -3.87426808364223   -5.17264458734520
S          10.09660314410766   -4.86015979745423   -4.75310245856058
C           2.83130248790051   -3.71347911233318   -2.17365333184867
C           1.42925255298679   -3.81655242680517   -2.21203991746505
C           0.88937177298681   -4.10089554231420   -3.43910226242972
S           2.17887194685263   -4.25496956057289   -4.58849363160440
C           6.99017387795301    0.17423900807976   -1.20247745431291
S           8.60796793732120    0.77612590501863   -1.00153761061258
C           8.05143985400642    2.03389038899301    0.06433020167636
C           6.68811869804736    1.95371933242904    0.24542445697527
C           6.09300413976884    0.90917262147219   -0.46201069829042
C           9.01004307289753    2.91838645212650    0.66898342687581
C           8.74426193674446    4.17280377915296    1.20899977098069
C           9.70662427593620    4.92616091351632    1.91361735323396
C          11.00889509256562    4.48768688588352    2.13603635231168
C          11.33664756831759    3.28222139989556    1.47600387176255
C          10.36404387865259    2.52227053543283    0.76861303900783
N          12.49861966571630    2.61969129058306    1.39037212865247
N          12.21676028988333    1.56308424531371    0.68159106077007
N          10.98022619990833    1.43503569811609    0.28954430532732
Cl          7.19160133063997    4.89465018134232    1.00039021352905
Cl          9.21758338393456    6.48507761067471    2.47172274115805
C          11.96452424412446    5.14592214086268    2.98684711848493
C          13.21906270922393    0.59982972315713    0.32296687073429
C          13.36820092218395    0.52990813459381   -1.19241171205936
C          11.71550334694722    5.89584467006060    4.11454211108543
C          12.87011675829612    6.34786597767953    4.74683007421451
C          14.03140018982256    5.95334767654682    4.11405557473797
S          13.67444041096095    4.97832622391924    2.72117373383527
Si         13.15360269218066   -4.61421234936547   -5.43199610505326
C          14.39996307751270   -3.68101290374313   -4.36631891228443
C          13.95310684401851   -3.46516676121299   -2.91578088778398
C          13.02641758879437   -6.41751671669852   -4.90310225997416
C          14.29487129981312   -7.24167707981770   -5.14597508530669
C          13.57334453090585   -4.45650708012922   -7.26342688226282
C          12.56275111867167   -5.13901673524057   -8.19319554075900
Si         -0.89944345722129   -4.31998934228257   -3.92768738442620
C          -1.81789797826344   -2.71680938385451   -3.55442881359066
C          -1.20751457905028   -1.47613008324518   -4.21682601963051
C          -0.90180833450758   -4.70070396236464   -5.77286197612228
C          -2.29523147036015   -4.92297344743686   -6.36977826863543
C          -1.61171452251229   -5.75611662061018   -2.93445009054659
C          -0.81990433863180   -7.06250050492941   -3.06484204546150
Cl          0.46332474720042   -3.60016956860211   -0.80916365238877
Cl         12.11846224068337   -1.29604641630403   -5.70000890593586
C          17.66415239983316    8.02713368589712    6.82181623171020
C          17.03991421817037    7.31082610236008    5.78220107497312
C          17.81015315235398    6.72720916187912    4.74540952671842
C          19.19816327512672    6.82186720905632    4.68752417780278
C          19.82035950809742    7.58385546402036    5.70105579168522
C          19.04639406255500    8.14584790449095    6.74543915093746
C          15.66134424186431    7.04307262698865    5.63252057795633
C          15.35116405886525    6.30761196950517    4.52379301861482
S          16.78511464490624    5.87905197350369    3.61430147676519
C          21.18364424914646    7.95171869891872    5.81127754473712
C          21.46117219814232    8.73366009850665    6.89385586432871
S          20.03316677420607    9.05946267135018    7.85290416633196
C          16.92680834312400    8.63905983762961    7.90873119948026
C          19.97601749203628    6.17613792029895    3.65081581163105
C          19.66823767431735    6.00412372506740    2.32812529503464
C          20.69224844001669    5.34559552253340    1.62191242219345
C          21.78167465387441    4.97245892865351    2.36630590313083
S          21.52055161433202    5.46228709770435    4.00763765858057
C          17.28969509097090    8.70086879641053    9.22670915704667
C          16.36519006676438    9.42257524096916   10.00261090380455
C          15.29377501337216    9.93968792477149    9.32148035672433
S          15.43970726831070    9.50017029441768    7.65170214461128
C          22.72128325346049    9.27102789360266    7.27741010659027
S          24.15466925776197    8.96230252674910    6.34677777080451
C          25.11274430404472    9.94224864263669    7.42153806504291
C          24.34047272256421   10.43896806959196    8.44856981246511
C          23.00008133165351   10.06167484569711    8.36924604836187
C          26.51767464954784   10.08854478693171    7.15532837954162
C          27.33999077373219   11.12213046503450    7.59404122751426
C          28.72548437278046   11.18767462949353    7.32333108473168
C          29.40756680303937   10.22053251309005    6.58905371981140
C          28.57247233833677    9.18865892506073    6.09508685424061
C          27.17930707850318    9.12542718740489    6.35848744519529
N          28.88020719845403    8.13188717278686    5.33384116318566
N          27.74907864094008    7.50702669943709    5.16518875195837
N          26.70587804135709    8.03306952865987    5.74171854369753
Cl         26.66153868746382   12.44529784851820    8.46975556253194
Cl         29.55372662064260   12.57403221466698    7.92581314841639
C          30.80949316280933   10.18019518439247    6.27805475707164
C          27.66377882981426    6.31083159791565    4.37575392373046
C          28.10163035111004    6.58809462532636    2.94328811917855
C          31.87947070874198   10.90569118227918    6.76009918667758
C          33.10347953325796   10.54585928661646    6.19488474966132
C          32.99533523546559    9.53554157905358    5.26741039218495
S          31.34795022847952    9.01278102750618    5.10151480325663
Si         23.44193704237098    4.28155470381556    1.86899530928135
C          24.39226748425112    5.68705589763213    1.03908111013596
C          24.32827364458355    7.01703725701564    1.80108947105528
C          24.30242917077302    3.77670775738079    3.47042999701849
C          25.67823804492732    3.13077193941081    3.27717910575473
C          23.23128829070684    2.80615377138417    0.71981049545097
C          22.35851112454945    1.68455639493503    1.29495217581950
Si         13.86529890341648   10.96152577376708    9.95565575959961
C          14.55488573441074   12.51591181804721   10.77559092211888
C          15.84201748263115   13.06790648890161   10.14925209064135
C          12.74949725783748   11.36841406003784    8.49104060381179
C          13.30791267656931   12.39658847264839    7.50101390957048
C          12.91501316357939    9.90538222368476   11.19663313657577
C          11.77018675107120   10.64548008086075   11.89495348650602
Cl         16.56997481026146    9.64090189908355   11.69390944505911
Cl         20.58566450689056    5.05314579676813   -0.06730661687675
C          35.23833144386971    6.34548164805633    2.15927799133938
C          35.06293641093130    7.42931219062176    3.04128606677048
C          36.17590026185020    8.18903826994327    3.47439964306713
C          37.48178907286258    7.91096058004180    3.08336946642727
C          37.65793903213961    6.81284228959622    2.21627255519446
C          36.54091065189122    6.05403384348018    1.78305669996282
C          33.86005169353297    7.85764043418798    3.64798279719467
C          34.01828707731427    8.90605144804299    4.50609774325856
S          35.68713169710477    9.43167187703462    4.59764431172880
C          38.85861673462463    6.34297493334716    1.63762835253140
C          38.69483318742293    5.26803160410772    0.81279407198930
S          37.01791411207260    4.77615431909629    0.69709259806004
C          34.08531186328797    5.59611500628917    1.69779643651840
C          38.59226310226562    8.70859188072633    3.56162878747357
C          38.61774857457893   10.06143349059233    3.77069594468811
C          39.85456494612068   10.50126533108327    4.27398802985036
C          40.79350781748379    9.52303647169580    4.47851946305534
S          40.10951078782243    7.99835637941868    4.02035503071818
C          32.90451394413007    6.10554322905152    1.23229786104132
C          31.97604585591296    5.09467041391785    0.92678122186393
C          32.40049921385312    3.81244774784625    1.15840778424831
S          34.03035271337493    3.86300609137032    1.75227714244500
C          39.72576841224537    4.59086921301657    0.10426155591117
S          41.37754674330813    5.08866089416650    0.30071893435818
C          41.93055341797645    3.86343506070849   -0.80940676287081
C          40.86115904831724    3.13723233021577   -1.29237816323521
C          39.62739174277153    3.54252414548502   -0.78101230165526
C          43.34200204209301    3.78762536013801   -1.07486457977726
C          44.02704237378932    2.80913502028433   -1.79132310514041
C          45.42453291273671    2.83966980950447   -2.00905684751127
C          46.25418501878037    3.84940248500527   -1.53836247940413
C          45.58556113588842    4.83519519749042   -0.77839329131457
C          44.18386890588248    4.80173577571268   -0.55476817551225
N          46.06379749881189    5.92361055361237   -0.16059275544625
N          45.01753892260373    6.47304150639504    0.38585262612717
N          43.87845647827029    5.86852317269065    0.19512109445259
Cl         43.19294583783389    1.44843460935490   -2.44143425779865
Cl         46.10731390759560    1.50416154966717   -2.86320005788184
C          47.67933867673422    3.94974259221034   -1.73114175684488
C          45.11303804670867    7.66618191678759    1.17769942734574
C          45.94571013701322    7.40936062242015    2.42761701014738
C          48.48335358125583    3.47425064611106   -2.73613846784540
C          49.83899636539563    3.80455018180432   -2.56458436564920
C          50.06385888224441    4.52380366545245   -1.43241978712406
S          48.62069578674904    4.83637679116425   -0.56307450222454
Si         42.53856856617524    9.66540371560745    5.12128585240731
C          42.50664527343134   10.50189749352376    6.81244306657696
C          41.28303314651222   10.17790750488702    7.67955197951425
C          43.26748617459634    7.92712821874972    5.19096105060481
C          42.72811720309996    7.03241498751592    6.31218282339393
C          43.52542395898225   10.69230579497735    3.88148478620453
C          44.92956331296620   11.06895524824792    4.36315687524223
Si         31.49074312295476    2.19784532679434    0.93542914023576
C          31.31440233277018    1.88494125021624   -0.91539357662872
C          32.65255533113874    1.79822517694747   -1.65919127451927
C          32.54643125746011    0.87902125168591    1.76733679064933
C          32.02361679019481   -0.55142562178859    1.60002076216011
C          29.79784081685828    2.32606731983349    1.76116144515835
C          29.82676131424439    2.90768819277823    3.17929287599775
Cl         30.41420520589703    5.45153766458993    0.30697837480706
Cl         40.16818585637223   12.15735108499469    4.60630625031692
H           3.83861084862219   -6.21044268078467   -5.14274209464676
H           5.58383852983281   -7.46843347455171   -6.59779197406103
H           8.64140710258366   -1.42515239782834   -2.83142846063869
H           9.21351399296483   -1.38290416115626   -5.10885113103048
H           3.38384957419213   -3.51968723075796   -1.27313561755621
H           6.13551552257670    2.60457364383798    0.89560774338384
H           5.04028219701940    0.68901469812181   -0.43831950685664
H          12.91425993790940   -0.37584475728875    0.71204501546725
H          14.14499624718759    0.91754756111461    0.80447476051839
H          12.41124798783678    0.28321997458221   -1.64488435287886
H          14.09173602948936   -0.23494394256746   -1.45816771399536
H          13.70730268198975    1.48476632494684   -1.58614658410459
H          10.72930870755411    6.08565990139889    4.49385210956448
H          12.85531755226688    6.95093287595444    5.63545728516712
H          14.61881867526263   -2.70328088714778   -4.80140718222709
H          15.35314548419123   -4.21543216923138   -4.35461793056850
H          13.04208853521643   -2.87237091910723   -2.88493480859904
H          14.72218982315488   -2.94426538077183   -2.34899960374616
H          13.75550621703355   -4.41652377726110   -2.42830831909773
H          12.19792803416708   -6.90348592217412   -5.42558219564564
H          12.77514289487532   -6.48430542205786   -3.84096477324769
H          14.54888757840430   -7.25023846884345   -6.20285736996286
H          14.15633016888606   -8.27043440903843   -4.82040816177249
H          15.13535641564886   -6.82180249286542   -4.59885467699504
H          14.56321565013274   -4.87305066227065   -7.46543876827223
H          13.63536175099817   -3.40256044586382   -7.54657487829428
H          12.51576724712664   -6.20633559677475   -7.99278561353422
H          12.84048408286671   -4.99865305495106   -9.23555216161378
H          11.56873525667623   -4.72331717896593   -8.04487632489276
H          -1.85116764780197   -2.54248683328116   -2.47633960323937
H          -2.86108181305667   -2.79711911159614   -3.86995957081575
H          -0.17950829957458   -1.33853403250434   -3.88936335444479
H          -1.77144965850199   -0.58287578156957   -3.95714417528885
H          -1.20834568443397   -1.57804952457727   -5.29919975040007
H          -0.29770252541999   -5.58905154069875   -5.97700507447851
H          -0.41853204335504   -3.89114967218598   -6.32659234514068
H          -2.79125494169738   -5.75861525321041   -5.88239826918673
H          -2.23105947566731   -5.13842102271067   -7.43426751128324
H          -2.91310428292969   -4.03831599426513   -6.23793293727921
H          -2.64401211033531   -5.94865081523140   -3.23690592535822
H          -1.66129722660882   -5.49554875070312   -1.87460850630643
H          -0.79491509806882   -7.39588845119034   -4.09934834500849
H          -1.27006191799446   -7.84902964233364   -2.46315147469541
H           0.20463829233524   -6.91958508879407   -2.72887730477065
H          14.92124395937202    7.38201599256214    6.33065733756220
H          21.94746439031132    7.68129985912998    5.10650797424856
H          18.77247987063868    6.36992364837248    1.86158379666290
H          18.16016121270361    8.22394373353919    9.63749525374098
H          24.73006754884909   11.03158735846203    9.25389824778886
H          22.24945099452511   10.35437009251807    9.08206868383866
H          26.62704532948068    5.97518334360575    4.42325023055066
H          28.31656239021757    5.55571757392106    4.82319661105234
H          27.42774947344909    7.29521127085556    2.46693996263362
H          28.10341215012496    5.66536140668110    2.37112637144318
H          29.10638510134205    7.00237391524055    2.94007941277037
H          31.79703177281548   11.66367833468973    7.51432947372720
H          34.04243266996144   11.00295043722986    6.45351422628565
H          24.00638244725764    5.85954036916547    0.03116922108197
H          25.44271187874100    5.41547331088115    0.90793895533272
H          23.30001725363449    7.36439723964547    1.86705903492640
H          24.91158468814983    7.78166443816599    1.29267977381899
H          24.71061384936985    6.90799815991631    2.81314151206072
H          23.67679185865824    3.07976961819136    4.03416828429294
H          24.41813019573488    4.64698767973884    4.12289050670061
H          25.58874636731607    2.20718557142952    2.71122917524674
H          26.13477714136733    2.89814452934460    4.23737508970004
H          26.34280328981549    3.79669174759425    2.73254121695941
H          24.20931834114521    2.38776321906388    0.46944034677998
H          22.79607954453193    3.12028556422372   -0.23109403222011
H          22.78575866659828    1.29877921897674    2.21724659636813
H          22.27144639512334    0.86227153979917    0.58810176112593
H          21.35999923063005    2.05594727692825    1.51220799524677
H          14.75627314479626   12.32278401059487   11.83269967481073
H          13.80149984872832   13.30848473014507   10.76036023709674
H          16.64553488326768   12.34026931184871   10.22907108423591
H          16.15513593154299   13.97796060147552   10.65655313822607
H          15.69684622499405   13.29484938671010    9.09638892193577
H          11.78757306774294   11.74234753873822    8.85152322591079
H          12.52059553035347   10.45557203195390    7.93333400952350
H          13.47107230544595   13.35177474422285    7.99332906757912
H          12.61385357832399   12.55283598942055    6.67792525380848
H          14.25337594468504   12.05474214868888    7.08708114401449
H          13.59024750748154    9.52629326808889   11.96703417656090
H          12.49983052478529    9.02029889252429   10.70673169838275
H          12.14844355978563   11.51174161997555   12.43151552905062
H          11.26684603143847    9.99515726189353   12.60708562635468
H          11.03650346714244   10.98854967388246   11.17000252070578
H          32.90654506005256    7.38953911523259    3.48621800828701
H          39.82434829197071    6.78293021309585    1.80281193748641
H          37.80443963901646   10.72479439755710    3.54215880815346
H          32.71694575924207    7.15324795059121    1.08352921808057
H          40.95054424703012    2.34320513543394   -2.00748006422743
H          38.68869865367646    3.08979651875757   -1.04841449272903
H          44.09180214575384    7.95534603534209    1.43120034303104
H          45.58144916817204    8.44589713455900    0.57105656617049
H          45.47410117527128    6.65238106122028    3.04887352555770
H          46.03631419154070    8.32711955813824    3.00061811544431
H          46.93721648609911    7.06562932025317    2.14430997758557
H          48.11805457219181    2.93371453719993   -3.58854093022636
H          50.61193838449694    3.51642186508372   -3.25434233329077
H          50.99709469735375    4.89628823350950   -1.05887036305250
H          42.54888556987355   11.58776799191977    6.69188616057220
H          43.40478629345640   10.23418650976913    7.37618745547353
H          40.37229228087787   10.51517170971422    7.19158844518209
H          41.35608702342938   10.67420265915699    8.64490881965761
H          41.19772302296882    9.10799070934098    7.84958047474166
H          44.35353385744300    7.98167637293686    5.30341695459291
H          43.09020712559621    7.41409840060449    4.24104296435154
H          42.95579351546076    7.45922448919240    7.28544916889749
H          43.17592891044923    6.04214060854135    6.26260988530878
H          41.65023989621682    6.92139089955817    6.22644059464454
H          42.99285961926382   11.61647666074588    3.64757750403540
H          43.61979895825093   10.15850664225383    2.93169479892050
H          44.87058568329055   11.67798123405740    5.26096078012310
H          45.46291113562224   11.63433427092616    3.60198328812946
H          45.50956398179418   10.17982605362479    4.59873178271025
H          30.72041677134608    2.67793403414410   -1.37747169504687
H          30.75974155245241    0.96064794790854   -1.09479141982138
H          33.21965276406723    2.71734304035152   -1.53067313482324
H          32.49349527176471    1.63974260600769   -2.72354489471571
H          33.25162350129952    0.97568848995038   -1.27707581235625
H          32.63807416550787    1.08477137429900    2.83737838344941
H          33.56769221333947    0.91737749487419    1.37882198612913
H          31.02691632640158   -0.64750433292015    2.02357581074292
H          32.67637042514615   -1.26308322707223    2.10082914803824
H          31.97179679428449   -0.81931867462634    0.54784784208031
H          29.33285739190235    1.33832067120939    1.80821722196124
H          29.12205361701126    2.93588752126865    1.15736892051174
H          30.45375474580494    2.30228172557792    3.82864156770432
H          28.82491717908845    2.93872782327003    3.60241082250286
H          30.22926473811579    3.91764223626524    3.16619861541502
