224
 SCF done       -422.044627812693          0.000757001651
C          17.01481055533903    0.79764068528676   14.19433377595729
C          18.24600748100956    0.97781605075137   14.85010204204865
C          19.43293353413718    0.45777194140234   14.28484030073200
C          19.46980698462247   -0.22116121537032   13.06839562269332
C          18.23967500628764   -0.38463143874386   12.40276425881540
C          17.04995171325962    0.13031116764075   12.97548568363970
C          18.50859850049370    1.70159302450171   16.05081312564900
C          19.81510232869280    1.71495703863795   16.38222156709902
S          20.81726038056771    0.85027571512259   15.27019805901484
C          17.98317712533830   -1.06890069435161   11.18903716270570
C          16.66650526212935   -1.07509678271603   10.82752197672780
S          15.66349825899886   -0.23112398248319   11.98659620929683
C          15.77668894870833    1.27769514631858   14.77709395219006
C          20.72418232614344   -0.70269288499739   12.52672178707829
C          21.77000865480544   -1.26124502483232   13.20586173063084
C          22.85362753409152   -1.56067210757701   12.35812119894650
C          22.68057297654804   -1.23210050287167   11.04666893915280
S          21.11025439416431   -0.53832271456949   10.83386292174425
C          15.37441513454584    1.18601558109441   16.07902878234979
C          13.52709459988148    2.30414914366081   15.17141658987917
S          14.57507065429763    2.08782969878440   13.81122488971752
C          16.08141032348039   -1.66206960964581    9.66790873695697
S          14.36543853359403   -1.62351694310580    9.41463219208015
C          14.52933033440417   -2.47046110065388    7.90561809809572
C          15.85339367245966   -2.75577297419988    7.63999700131856
C          16.72442597429174   -2.30267558171042    8.62869454357030
C          13.35659034507441   -2.76385930620460    7.13861237011419
C          13.33037434608291   -3.40734932342092    5.90621636733141
C          12.15745852068522   -3.66598788571787    5.18002181393846
C          10.88741919503167   -3.30814598153569    5.61359537316668
C          10.88676444889639   -2.66342117871290    6.87218495317061
C          12.07267045570132   -2.39722048844595    7.60713315107845
N           9.85873576430316   -2.20171519137136    7.59306832998652
N          10.40823064750388   -1.70156308786422    8.66357334710964
N          11.70694220153412   -1.78093530588066    8.73929220984619
C           9.65925051130846   -3.52460519667459    4.91051922509479
C           9.61945922605906   -1.12140220229449    9.71483044744321
C           8.59118327930406   -0.15652414205669    9.14139814220591
C           9.41426531801079   -4.18185494004280    3.72307092076882
C           8.06862082756372   -4.17110619422269    3.35384642447028
C           7.26619545523828   -3.49912259189643    4.24883529915115
S           8.19167599516205   -2.88091975193880    5.58366068740181
C          23.61831609998227   -1.43370811262918    9.90707438146093
C          12.22159576735977    3.01268275890121   15.05908739158141
C          12.41535472926996    4.49322436781492   14.72847804041088
C          23.05413694930552   -2.41875543959902    8.88261300808916
F          14.47913902262823   -3.81922742443987    5.33433350136568
F          12.31588755567594   -4.29102186408470    3.99710134162099
C          14.10748903752016    1.76720593281889   16.28143142710876
F          13.51292643823912    1.78134127766443   17.48981773085082
F          23.98292448093206   -2.13114055739614   12.81628027260118
C           2.72435826736506   -1.81106641048287    5.46704820379161
C           3.74601242109413   -2.48065334166974    4.76252070172739
C           3.44645295470054   -3.20068104546537    3.57995493500046
C           2.16540358300123   -3.28684972122019    3.04539260488243
C           1.15327440241104   -2.57807580266449    3.72454457241643
C           1.45269757348474   -1.86053721232237    4.90981265151151
C           5.12574305421166   -2.52614570432572    5.06927770414082
C           5.86290777323083   -3.27336995739814    4.19728579293392
S           4.87478268123132   -3.95800446912739    2.92467581651024
C          -0.20355002905653   -2.43247048617793    3.35540503491742
C          -0.93514922147411   -1.67070114596693    4.21976763214969
S           0.03028928166080   -1.08736250164085    5.55872256180162
C           3.01758639877013   -1.10326075172194    6.69705060997475
C           1.89742247854717   -4.06903944552420    1.85573129658555
C           2.68304504456210   -4.20911335967797    0.74625225988678
C           2.11295427223054   -5.08133830658695   -0.20051148542603
C           0.91818341743813   -5.63236396177809    0.15542057241770
S           0.46227329480812   -5.04988386240992    1.71868782096634
C           3.84633617397620   -1.48707681835511    7.71374512748111
C           3.16850613613821    0.60318062289187    8.52537595974122
S           2.32815073252912    0.46435992079952    7.01948241818951
C          -2.30378331976787   -1.31052641373161    4.07717593196448
S          -3.19153377307165   -1.83078389312109    2.67679710680023
C          -4.60135111132273   -0.95662857219815    3.20011078344618
C          -4.37460639895611   -0.32934613908716    4.40768539349458
C          -3.08412283448340   -0.52836671353687    4.89964269787077
C          -5.74568246441995   -0.92560474023916    2.34013704447061
C          -6.89603839072849   -0.16966253840431    2.53245592927839
C          -7.93749873153981   -0.07796018106613    1.59542084390122
C          -7.93849678348416   -0.73555608660101    0.37074396692897
C          -6.80880901088331   -1.56657599477347    0.18169513495627
C          -5.75214698067738   -1.65462268387814    1.12745476725179
N          -6.48605455420277   -2.35658378525365   -0.84970799276202
N          -5.33021748192207   -2.86318017977755   -0.52353264652703
N          -4.83804189147068   -2.49395293248887    0.62548572305694
C          -8.90243114544809   -0.57126002842835   -0.67520583700177
C          -4.66195829981023   -3.81906073833081   -1.35809773105806
C          -5.13068345525007   -5.23147135534051   -1.02249547882595
C          -9.99683097232168    0.26542281937478   -0.75244490938012
C         -10.62550865966598    0.23847175262816   -1.99773841140022
C         -10.03101859260910   -0.62826308002513   -2.88768282360883
S          -8.67211122135366   -1.43661809168734   -2.16663954287030
C           0.04961222482908   -6.55629037584169   -0.62612436348065
C           3.00706325291311    1.78858515695335    9.41269387538861
C           1.57513026515402    1.90007641765641    9.93746505289901
C          -1.26445890513771   -5.88223188689911   -1.02436086517722
F          -7.04258501366117    0.56045148372381    3.65527228743241
F          -8.96373275247390    0.72937346615093    1.92773654747964
C           3.91576301951853   -0.51759882053599    8.73239907343892
F           4.68469095422836   -0.68569064835665    9.82733146787513
F           2.70889700175283   -5.34898775433143   -1.37700404671021
C          -9.75560564549685   -2.45841075437408   -7.52883717614157
C         -10.17766821112394   -1.68045508222782   -6.43151610578792
C         -11.09476920934259   -0.61640808778980   -6.62274240441011
C         -11.58675360827644   -0.25022085400296   -7.86894657013793
C         -11.15899514571029   -1.02229878876078   -8.96702818044579
C         -10.26867819360370   -2.10661578490418   -8.77307610598456
C          -9.78066049934859   -1.78840506812984   -5.07828639879553
C         -10.33274474983935   -0.84504621214056   -4.26153120712642
S         -11.42958814417245    0.21187596489870   -5.12554582998100
C         -11.48848678233632   -0.84963011552095  -10.33136922197647
C         -10.85614379473939   -1.72202577422337  -11.16844318712634
S          -9.84862792479346   -2.85554295025298  -10.29200444452871
C          -8.81388280618757   -3.55245592856789   -7.39814905883884
C         -12.46360328624264    0.88952925411789   -8.05573852854763
C         -12.40455342754474    1.84918205647484   -9.02631993518071
C         -13.43678192935131    2.79782740567025   -8.89240341782221
C         -14.29132133142598    2.58998069059202   -7.85151298550323
S         -13.80628008504421    1.17395131523605   -6.98316129979893
C          -8.83307131343057   -4.74837662306266   -8.05915107827865
C          -6.85960733961761   -5.01796074893411   -6.82656122483745
S          -7.40933555503066   -3.44228510485977   -6.37184295414992
C         -10.91198392103641   -1.72238182791313  -12.59009264639084
S         -11.71508975028519   -0.41949563916142  -13.41498288263198
C         -11.26343693639526   -1.07152547001704  -14.96123084808150
C         -10.54835915783170   -2.24139379238882  -14.81620866387601
C         -10.34608539944446   -2.60389600616193  -13.48324273126853
C         -11.61702100730575   -0.34023265789436  -16.14149588802035
C         -11.30425311521881   -0.68393010282595  -17.44906478492240
C         -11.63052365058148    0.10864225604396  -18.56216828297263
C         -12.29563407277407    1.32615601163906  -18.48476217786415
C         -12.63756818476018    1.69376159738819  -17.16189963895022
C         -12.31651947703998    0.88420081047994  -16.03896421873420
N         -13.27337990140483    2.77873272946813  -16.69685745479336
N         -13.31741267069647    2.60471518911394  -15.40650797864190
N         -12.77638869294166    1.51039873592038  -14.95028313726304
C         -12.62465731653029    2.16916554274103  -19.59907990370494
C         -13.94687442162969    3.55408999490349  -14.53057429765534
C         -13.08944994726487    3.78549798044182  -13.29491972848658
C         -12.38452581865577    1.98820045430596  -20.94099429809208
C         -12.85968330533069    3.04673479209943  -21.73145631096968
C         -13.45518377544253    4.02452464441308  -20.99498692450020
S         -13.45157789796638    3.67605432339425  -19.31663147710679
C         -15.45388133519804    3.41694608952779   -7.42386378046804
C          -5.62976549317130   -5.62207878315136   -6.24229622962722
C          -5.81160233579885   -5.92584680455171   -4.75419478247648
C         -15.19596438075116    4.07781005340915   -6.06909667328573
F         -10.64365395027406   -1.82959938750760  -17.70752956687187
F         -11.24505100949877   -0.37764961667886  -19.75883564315914
C          -7.73562317561482   -5.56173185889171   -7.71768543831339
F          -7.56592034351564   -6.79076363701358   -8.23812310649365
F         -13.57077814847286    3.83227124069314   -9.74764954214977
H          17.74781851870918    2.20715331656945   16.61580805981826
H          20.27628233804560    2.18474506214732   17.22877208718421
H          18.74449773672483   -1.55491084549944   10.60948939619075
H          21.76814694259376   -1.48744365460561   14.25544151611033
H          15.92868852225024    0.69341994804983   16.85617509501044
H          16.18322151995535   -3.27469328017398    6.75960820100701
H          17.79014813394474   -2.43337797127288    8.58495428705000
H          10.31671370926542   -0.62631245674283   10.39271318779333
H           9.10964663790583   -1.92890736677114   10.25036532970034
H           9.08134367431678    0.68983897019781    8.66689831016928
H           7.94540460862581    0.20842526212483    9.93438134707112
H           7.98356567781186   -0.66932753860053    8.40076444744884
H          10.18227262247001   -4.65647414186519    3.14129692755879
H           7.68488516587862   -4.63246294089923    2.46097089816528
H          24.56306984016310   -1.81006161105187   10.30502623660842
H          23.80965719194246   -0.47537484198141    9.41652073474816
H          11.69265708760540    2.90988540322151   16.00901236642071
H          11.61884644289195    2.54498102232731   14.27625236755105
H          12.99611960997456    4.98292518455528   15.50669168336109
H          11.45138982586268    4.98920388291019   14.65103629822483
H          12.94184986303682    4.60149273574658   13.78283050305683
H          22.86808872168269   -3.38470921792849    9.34669119859766
H          23.75942073670693   -2.55565527008360    8.06722934864377
H          22.11834104757091   -2.04270695487308    8.47465514032672
H           5.57737295046503   -2.00057114551357    5.89000654490207
H          -0.63818915451416   -2.85166581678577    2.46701247086022
H           3.60829943078563   -3.69051078935796    0.58059255543161
H           4.35220046725659   -2.43294790131147    7.76739303001356
H          -5.11458300994814    0.26094644859170    4.91519708611605
H          -2.71892605937857   -0.10903810075228    5.82055396908563
H          -3.59052757290347   -3.71813824323472   -1.17824231141027
H          -4.89811753814079   -3.57211788270591   -2.39463698966484
H          -4.91303383036886   -5.46070934698278    0.01758055556920
H          -4.61858544025945   -5.95012734324051   -1.65460011700592
H          -6.20147114414564   -5.32000113814665   -1.18732666763850
H         -10.32264768258553    0.88946187811905    0.05869852104882
H         -11.48219823577035    0.83690523023452   -2.25325048005700
H          -0.16925952738619   -7.44605442588779   -0.03009911352599
H           0.59511508447722   -6.86663542087790   -1.51972595065842
H           3.25898580906986    2.69708470928661    8.85922239832558
H           3.70393783329015    1.69037719139234   10.24784505380110
H           0.87798557372410    2.00147466012623    9.10877120332367
H           1.47916659341501    2.76865133970369   10.58358222405528
H           1.30962412896719    1.01216348659014   10.50658791000786
H          -1.80834766527081   -5.56832160983616   -0.13594373525799
H          -1.88289815373359   -6.57543259714267   -1.58874944404790
H          -1.06757508765894   -5.00849663065517   -1.64184243204372
H          -9.10106428243869   -2.53055215227121   -4.70272812851396
H         -12.17773167202754   -0.11026346488132  -10.69466533337537
H         -11.63909885151662    1.91508875419836   -9.77685893678389
H          -9.60784152438412   -5.06284946450637   -8.73264294786670
H         -10.17450550335484   -2.81160401729521  -15.64612648186703
H          -9.80003945605647   -3.47723497630500  -13.17260270424006
H         -14.92498138112723    3.15850911550474  -14.23689319635210
H         -14.09289375921896    4.46777434747309  -15.10927831178539
H         -12.90289643076668    2.83715016112821  -12.79861824660161
H         -13.59974768651612    4.44924142573051  -12.60370644285290
H         -12.13554454625260    4.22932695679617  -13.56784267610073
H         -11.88656736265309    1.12888077099207  -21.34861362441537
H         -12.76226173881286    3.07899217076149  -22.80180205294555
H         -13.89942192466382    4.93597543825724  -21.34317448658073
H         -16.34498416636102    2.78782652631137   -7.35359683055013
H         -15.63101206845069    4.18124506914998   -8.18367949408742
H          -4.78888449277106   -4.93537043150593   -6.36992342803096
H          -5.40755666181691   -6.54299409133065   -6.78515775783706
H          -6.05796141843352   -5.01530855444110   -4.21250042355055
H          -4.89618493507260   -6.34450392319621   -4.34412387589105
H          -6.61671541641112   -6.64230115443605   -4.60947735109304
H         -15.01803378971764    3.31996556408776   -5.30942886992851
H         -16.05454464094165    4.67480357059975   -5.77344183212330
H         -14.32390510110748    4.72528397578417   -6.12298054282870
