314
 SCF done       -494.435306277691          0.000986350854
C          -3.00351865973324   -0.99287958021703    6.15518316746301
C          -2.45141984183298   -2.17730628571252    6.67907371101437
C          -3.00658209725837   -3.44752969182998    6.39338612935703
C          -4.11977387305300   -3.66616803527881    5.57514804962467
C          -4.68653041136480   -2.48002002923928    5.07018311892986
C          -4.13086790962493   -1.20801313401245    5.36082432608164
C          -1.33846737710525   -2.44518430545557    7.53418748425507
C          -1.29568274893772   -3.78719171298519    7.68854689926556
O          -2.28332953457430   -4.41230669828358    7.01258740826746
C          -5.80986370216347   -2.21393831812509    4.24204754521316
C          -5.85568073727710   -0.85807804408444    4.06626183119656
O          -4.84266401714861   -0.23953864121957    4.73615255031329
C          -2.47873020743509    0.32915243557081    6.38759397967768
C          -4.59713478614696   -4.98825792859708    5.26768253833430
C          -4.32786025360346   -6.15917506552323    5.93654097160450
C          -4.91655301860556   -7.28324643922882    5.34398580509619
C          -5.63864136280539   -7.01554462366001    4.20858061939106
S          -5.59190574134589   -5.31248716939018    3.87885136265050
C          -3.13144739973578    1.52803802494659    6.22920025171153
C          -2.32766962894897    2.63912237008162    6.51464344213282
C          -1.04288220327420    2.33346490702971    6.88465084891657
S          -0.83821934186150    0.60755727610390    6.89000617469879
C          -6.74367743024359   -0.05184677299881    3.29439693732015
S          -8.15461927434425   -0.72403290670265    2.55293547958481
C          -8.55040520195466    0.81189375903797    1.83297639012003
C          -7.62274583977023    1.77213986101227    2.17997463493850
C          -6.61176676021936    1.28991720237800    3.00836460435234
C          -9.68023890596039    0.99417538153474    0.97155506655793
C         -10.69772438643681    0.06589847476268    0.79628702372495
C         -11.78404901354328    0.25122075226204   -0.07026561539124
C         -11.94613287713597    1.36697944494939   -0.88024046457074
C         -10.92468975067632    2.33762717101904   -0.72082865459671
C          -9.83915642616767    2.16559456567716    0.18865728567257
N         -10.76376186600450    3.53208500071828   -1.30715635872054
N          -9.67436373713088    4.01220579496431   -0.77743855678706
N          -9.07597784764106    3.26407445175171    0.10605836233173
F         -10.66707313365626   -1.09019126767351    1.48784846655705
F         -12.69653692323804   -0.73944108242665   -0.11775050414790
C         -13.01342114022871    1.54527902289833   -1.81889636796499
C          -9.13210822092204    5.27724020219273   -1.18340973217150
C          -8.13730557959482    5.08729102944364   -2.32464221224246
C         -13.06345397290720    2.49857778916291   -2.81561174272449
C         -14.21012905626962    2.41777684871988   -3.60005339060396
C         -15.06610424748119    1.41185815434611   -3.20226418033771
S         -14.43245141614297    0.53938710474867   -1.84856161264925
Si         -6.55975352826860   -8.14495032613245    3.05318464989572
C          -6.68374955173918   -9.83719764314955    3.87370181726360
C          -7.44022873033091  -10.87443510816766    3.03838557473038
C          -8.26157570707418   -7.40056709911589    2.72963528859263
C          -9.11071965064286   -7.20369832338111    3.99057100206527
C          -5.60013150443944   -8.23987396158119    1.42976856031137
C          -4.17421592497649   -8.78247177382817    1.57680065057954
Si          0.36162626825594    3.44179678720686    7.39103013609799
C           1.93878049243147    2.79695829297672    6.58284591052834
C           3.19683041445799    3.61297721272906    6.89718584763691
C          -0.02506190732770    5.20076823674578    6.83210529786282
C          -0.06411248575605    5.39454667585175    5.31254540959452
C           0.53039611105758    3.37576944468046    9.27115506402446
C          -0.76121007773321    3.70713209783330   10.02711731113234
C         -19.14115585358767    0.97935476244284   -6.06999312889095
C         -18.13088552213969    0.90240143483608   -5.09236215228754
C         -18.29549738789892    0.14883197182805   -3.90221589317650
C         -19.45220025196091   -0.55922368884167   -3.56276124323161
C         -20.47210451927374   -0.46927415787171   -4.53605792323599
C         -20.29544412681964    0.27653857807013   -5.73018325249354
C         -16.85096658753249    1.50131194118918   -4.98569452548381
C         -16.32208554660715    1.08563855729353   -3.79253762434055
O         -17.18198796580818    0.25914140556293   -3.13733770499947
C         -21.78083174110674   -1.01166060320049   -4.63609567672993
C         -22.29821223396585   -0.58284676587529   -5.82918373845887
O         -21.40479970542493    0.19510569164693   -6.50015148980502
C         -19.02217854626984    1.69466697552154   -7.31384506989466
C         -19.57454567025215   -1.27979818872489   -2.32335734386597
C         -18.59031852552729   -1.55087016688991   -1.40003373117347
C         -19.05677558252726   -2.25147430405281   -0.28101093911244
C         -20.39998145785210   -2.53218956429381   -0.30189471556584
S         -21.09559457022785   -1.91337694222369   -1.76631343431731
C         -20.03737693139197    2.14585822442246   -8.12204280164715
C         -19.57981387293297    2.76465005518499   -9.29235457123779
C         -18.21508381151338    2.79363261844059   -9.42529403123465
S         -17.48161399047424    2.04756713746101   -8.03783423725231
C         -23.57398991348560   -0.80067353794760   -6.42553175013215
S         -24.82392911498188   -1.67937436586975   -5.60826756150935
C         -25.91972880303657   -1.41844894258465   -6.93750963648535
C         -25.31285493418558   -0.69800646007060   -7.94568603801944
C         -23.99475578253935   -0.35019879369593   -7.65819426541464
C         -27.25976957512540   -1.91566501483068   -6.86197042798346
C         -28.25116759639684   -1.71172994960088   -7.81257483334780
C         -29.55978608468734   -2.19295775853463   -7.68042933757445
C         -30.02518276818793   -2.92456391205006   -6.59348803236289
C         -29.03362916572074   -3.15908746636292   -5.60697578564235
C         -27.70212746262638   -2.67053084242011   -5.74952484436101
N         -29.08437625013054   -3.81816303810010   -4.43938131593814
N         -27.87749922246916   -3.71840801468033   -3.95332566750639
N         -27.01388903178126   -3.05850937466779   -4.67114176112451
F         -27.99000993898379   -1.01339030371546   -8.93515826096602
F         -30.40011278687581   -1.90262808331345   -8.69450490897860
C         -31.37018493574362   -3.39810495114894   -6.47207780485713
C         -27.51052015682887   -4.31585713957986   -2.69973066208202
C         -26.89442830387395   -3.27685613476950   -1.77162102189133
C         -31.91293306354718   -4.12058646836521   -5.42908330026499
C         -33.26137969860714   -4.42870527704970   -5.61004391746304
C         -33.77095317429462   -3.94512189406848   -6.79597109185649
S         -32.56439019360784   -3.09810757221317   -7.70204798813115
Si        -21.45761120264005   -3.44830884848785    0.92267910498947
C         -20.84651357223317   -3.04484140494366    2.66000889379208
C         -20.92845916226902   -1.55911131107097    3.02795684009682
C         -23.23719644190249   -2.87499687569786    0.66681332950320
C         -24.26211443716453   -3.51317358106101    1.60916632937714
C         -21.32577277670856   -5.30235497672635    0.58726653353049
C         -19.89049225334395   -5.83961667218798    0.60045848306104
Si        -17.14607848290019    3.50078529442957  -10.77258104906453
C         -18.24469789763074    3.95154315923306  -12.23635341085068
C         -18.85186917988247    2.75042317187610  -12.96981937478359
C         -16.27800090334253    5.03534446914382  -10.09438149279971
C         -17.22766446005620    6.07309388670822   -9.48527303152239
C         -15.86480890483638    2.19971494832173  -11.24563670472000
C         -14.89846590116389    2.62835567019234  -12.35461896629283
C         -37.97451557014794   -3.66386900070387   -9.49579733964990
C         -36.95047625828315   -3.91486783475086   -8.56129544909792
C         -37.19339333270217   -4.65154283138185   -7.37162249768133
C         -38.43248767772994   -5.18418218338690   -6.99960489672404
C         -39.46309522339794   -4.91203670384364   -7.92668845020139
C         -39.21189193750026   -4.17056230618945   -9.10762060034460
C         -35.58731270772859   -3.53649314624632   -8.49452423643825
C         -35.09008682445973   -4.04946004535897   -7.32623079824258
O         -36.05122569325478   -4.73104274205949   -6.64236866821461
C         -40.84528002940673   -5.23120809146562   -7.98977390766700
C         -41.32790985056741   -4.68189264806415   -9.14882414421096
O         -40.34487438792262   -4.03895175842593   -9.83197109372238
C         -37.81534339140977   -2.96582019850043  -10.74272816098825
C         -38.62187903868918   -5.92172120863497   -5.77864181865691
C         -37.66423046995887   -6.35044795852765   -4.88811170871567
C         -38.19313285468569   -7.03703163078695   -3.78825203110361
C         -39.56056347877285   -7.15178053027499   -3.79184834428194
S         -40.19901396649391   -6.38858682066150   -5.21368084688094
C         -36.68244774097220   -2.73718229754022  -11.48714135133268
C         -36.93690220852418   -2.04458369011371  -12.67737626790495
C         -38.25666320369996   -1.72284375917614  -12.87713864256038
S         -39.20677657727247   -2.31102759792124  -11.55130418757467
C         -42.64356784762572   -4.68805337591091   -9.69505308973800
S         -43.93585846565983   -5.51447235767301   -8.89014262845604
C         -45.05892107856425   -5.03034984725134  -10.12990614971220
C         -44.43159363254234   -4.27465190458741  -11.09874144745372
C         -43.07153275124998   -4.08212647612007  -10.85620237395930
C         -46.43133852082892   -5.42593744337270  -10.02181805557392
C         -47.45294285426733   -5.08032215708115  -10.89466179575410
C         -48.78609211011185   -5.48400057778653  -10.72372455922061
C         -49.24139191972154   -6.26803275051217   -9.67199377160871
C         -48.21959912625792   -6.64301155544827   -8.76358169304227
C         -46.86739022380404   -6.23466327300753   -8.94572545597328
N         -48.25501205203543   -7.38583133382120   -7.64592376064322
N         -47.02101599670278   -7.40372632974348   -7.22408084449657
N         -46.15212213327337   -6.74978879238758   -7.94058807759986
F         -47.19749624877645   -4.31503529134717  -11.97405092142922
F         -49.65764465252966   -5.06097905446466  -11.66157995513300
C         -50.60555613590525   -6.67792798859023   -9.49968094563615
C         -46.63292886714000   -8.12004098923619   -6.04082216677182
C         -45.80616324231451   -7.22802896625365   -5.12461753263385
C         -51.10900753784397   -7.45489896783330   -8.48250068375351
C         -52.48830869279445   -7.68525865468922   -8.59774027200881
C         -53.02928389343720   -7.08696244073694   -9.69528245109792
S         -51.86737264604576   -6.22964321891979  -10.61337275569280
Si        -40.70699728194793   -8.01455947998280   -2.61032688904352
C         -40.97942171244792   -9.78158000529955   -3.22132876529611
C         -39.68450998559469  -10.57074676649328   -3.44436459909587
C         -39.91939754809562   -8.02168040175330   -0.89755114858994
C         -39.68506611792127   -6.62895278877414   -0.30227100568952
C         -42.34653052216956   -7.08121653764295   -2.61384930226464
C         -43.43339513283384   -7.68854029467316   -1.72143874508733
Si        -39.07575345987867   -0.81258670769657  -14.27754665181358
C         -38.20032501051108   -1.29666563527808  -15.87673577732668
C         -38.77837933311014   -0.63202493633161  -17.13019750154437
C         -40.89806658708716   -1.29526076068760  -14.31424428659228
C         -41.15994885269773   -2.77993578024606  -14.58982287323104
C         -38.93614736288835    1.04484592281640  -13.96589056988673
C         -37.49547591337305    1.55457004938614  -13.85451783304923
H          -0.67211082717610   -1.73412684983607    7.97401703817159
H          -0.62650327447577   -4.41450177924710    8.24492984068504
H          -6.50220333342987   -2.91502812398815    3.82573486684586
H          -3.73663104047644   -6.19956294180232    6.83216823241649
H          -4.81614699594489   -8.27923053463466    5.73772770891856
H          -4.16187193041026    1.59913991299957    5.93493933927723
H          -2.68137254264364    3.65332394421718    6.45277858831621
H          -7.69288832497949    2.78458826050442    1.82975061976580
H          -5.79617125050124    1.88243297810172    3.38133080159979
H          -8.63737797570155    5.71807472203462   -0.31602733660581
H          -9.96677473221724    5.90476976169388   -1.50057140203239
H          -7.32438643492264    4.43863864269067   -2.00786566195597
H          -7.72568779334806    6.04821577406065   -2.61911596203295
H          -8.63097970030489    4.63882543084725   -3.18316870068134
H         -12.28062200525603    3.22000190240718   -2.95370979399115
H         -14.42343805963655    3.07408542488340   -4.42331215690719
H          -7.17816645738077   -9.75634184302336    4.84522230354161
H          -5.68690750836989  -10.23357367944706    4.08288912521444
H          -8.45957196905904  -10.54553678695906    2.85308629228289
H          -7.47934760148113  -11.83367062897938    3.55096954601991
H          -6.95163280822276  -11.02118357135706    2.07837533795337
H          -8.82859505650092   -8.01773440268588    2.02800783787711
H          -8.15156715319572   -6.42716229137393    2.24357190626139
H          -9.30362323828321   -8.15696117014851    4.47659909596477
H         -10.06579124602709   -6.74423049476030    3.74586945935421
H          -8.59351675942663   -6.56038851224264    4.69856116949252
H          -5.53847991884959   -7.24548404656452    0.97865908666545
H          -6.12944933683103   -8.86090397950671    0.70257504110702
H          -3.60571068506856   -8.17050224469495    2.27335833585356
H          -3.65771550476300   -8.78199052076457    0.61915271806514
H          -4.18910300566066   -9.80138627998063    1.95554092265634
H           1.81927728448251    2.75951786231972    5.49663781633359
H           2.11626735916434    1.76276113948862    6.89094501938950
H           3.07804646524218    4.64180969017165    6.56612200613552
H           4.06696005341577    3.19231502668543    6.39727451515153
H           3.38907119320092    3.62060980514676    7.96708443294747
H           0.71534532755707    5.89141845543763    7.24398044845976
H          -0.98504245262600    5.52604873731775    7.24102822518723
H           0.90210183814705    5.16037020603645    4.87332237205591
H          -0.31337739902529    6.42316004964408    5.05890490693059
H          -0.80659727510693    4.73976230038604    4.86319885837894
H           1.30835378991760    4.06380536301943    9.61219662812811
H           0.85716286675040    2.37937039772617    9.58185993278535
H          -1.08962637215036    4.71757521954954    9.79733351585369
H          -0.61177844108841    3.63284329694323   11.10216729463184
H          -1.55442825500594    3.01997327532160    9.74216053502348
H         -16.37861839369129    2.15135567786770   -5.69045359473778
H         -22.29337726292068   -1.64084689845587   -3.94021065637067
H         -17.56444954738389   -1.26123677708530   -1.52852855131854
H         -18.42080159633050   -2.54540931238843    0.53538768061795
H         -21.07579177393363    2.04882266630963   -7.86547041910325
H         -20.23822205186405    3.18513196580702  -10.03174520159052
H         -25.80414438445881   -0.42938869771147   -8.86166215387100
H         -23.35817534055142    0.20944411181420   -8.31911738222321
H         -26.78595153833355   -5.11217300450440   -2.89663758350012
H         -28.41967648706951   -4.74864946839509   -2.27918314122636
H         -26.04132780014164   -2.81179600477038   -2.25868690960831
H         -26.56278966870241   -3.75379348466997   -0.85407470567218
H         -27.62019582444939   -2.50583498315893   -1.52487028224013
H         -31.33059814126156   -4.40402108169910   -4.57210891177703
H         -33.85545341674541   -4.98170632053226   -4.90523958547294
H         -19.80806589380086   -3.36441392475486    2.77803374736472
H         -21.41300798757657   -3.61401046978819    3.40166627873037
H         -20.34994615584815   -0.96257262162446    2.32665499366090
H         -20.53903885486167   -1.38586905327394    4.02904740000016
H         -21.95876624314183   -1.21353078087661    2.99802465590769
H         -23.54697905886217   -3.07444286952764   -0.36281383224790
H         -23.29935044643220   -1.78978394682051    0.78153434031263
H         -24.29015152245923   -4.59121820236083    1.47013519286466
H         -25.25886527313143   -3.11635802718993    1.42485197995485
H         -24.00439278798578   -3.31201441223332    2.64586299464933
H         -21.76607483835535   -5.54058427148276   -0.38515563993347
H         -21.90493501085746   -5.86663716133014    1.32277217610453
H         -19.28427858465499   -5.31965062028884   -0.13724873479431
H         -19.87181038432134   -6.90329003782875    0.37258175688813
H         -19.43689272786399   -5.69250547864455    1.57723023980981
H         -17.67615706123180    4.53961263702075  -12.96136612903596
H         -19.06176599682762    4.60092403918147  -11.91155591934410
H         -18.06920223564390    2.13070175979437  -13.39971519089482
H         -19.50719044915738    3.07828954824152  -13.77441072814336
H         -19.43017198262046    2.13539539084249  -12.28482232710545
H         -15.69529107263681    5.52759498442133  -10.87722847225032
H         -15.55706340634821    4.74456430549091   -9.32499314502649
H         -17.92327972203186    6.44084323100109  -10.23526561267543
H         -16.67350427518622    6.92098449063179   -9.08791896830518
H         -17.80466194476401    5.63051341357789   -8.67661971491068
H         -16.36210925582954    1.27951520038801  -11.56424276228985
H         -15.27575676883432    1.92241088279901  -10.36678718232896
H         -15.44296899973691    2.87047268601927  -13.26403415864995
H         -14.19180321290682    1.83267643298181  -12.58189041037458
H         -14.33592642496599    3.50785463678034  -12.05155282342884
H         -35.03280163298861   -2.93930135578047   -9.18719339522468
H         -41.43143177124141   -5.79043860970291   -7.29218049427807
H         -36.61392288623038   -6.18171973090646   -5.03192211027323
H         -37.58500627472172   -7.44435088478647   -2.99946222568632
H         -35.70710609469269   -3.09110311456760  -11.20995032332888
H         -36.16796256196358   -1.78813180185003  -13.38474979557032
H         -44.93910488246566   -3.87372349491124  -11.95607124257842
H         -42.41234401170786   -3.52026265040369  -11.49318704435252
H         -46.04292730002989   -8.99169501763896   -6.34169273454110
H         -47.55318444133774   -8.45719847261021   -5.56088411760984
H         -44.93725641005032   -6.85856539458411   -5.66256929139251
H         -45.47605072948508   -7.79320491116926   -4.25824997764253
H         -46.39407735960302   -6.37838773542703   -4.78684738676221
H         -50.48962034047277   -7.83516985096406   -7.69215804803753
H         -53.05720716138115   -8.27045915958230   -7.89757968404660
H         -54.05050168273461   -7.10067290697857  -10.02167368660936
H         -41.53348657393115   -9.76947421948990   -4.16444281731695
H         -41.60013264634559  -10.34194587769949   -2.51734541878444
H         -39.04920328258768  -10.05998346753124   -4.16412548558946
H         -39.89763987493776  -11.56873841519402   -3.82149970555209
H         -39.13164321313972  -10.66875255521150   -2.51342385444214
H         -38.95962150344499   -8.54381755231580   -0.92486587594884
H         -40.54065016380338   -8.59085002271444   -0.20120594795878
H         -39.04992896146273   -6.03784629900297   -0.95760651175727
H         -39.20474625497784   -6.69867775461610    0.67166655382765
H         -40.62820169333347   -6.10253371033555   -0.18016467118125
H         -42.73456885117744   -7.01977955581372   -3.63433848330914
H         -42.19028035693702   -6.04550387856240   -2.30152108082351
H         -43.66672352658377   -8.70221493076382   -2.03860600157532
H         -44.34557127930427   -7.09629832955667   -1.76318023631090
H         -43.10073190324255   -7.72636977345531   -0.68716622778440
H         -38.23380628946126   -2.38034603677517  -16.01788449972908
H         -37.13871321339616   -1.04330913139492  -15.81882413778353
H         -39.82563433176006   -0.89560448964724  -17.25451672099780
H         -38.23906213441966   -0.94761730545130  -18.02118524998708
H         -38.70787349484713    0.45021613143968  -17.05504127221041
H         -41.43648476992350   -0.70949757215177  -15.06395461818476
H         -41.36157369983967   -1.04379552644665  -13.35607773983817
H         -40.77446726073499   -3.06288013248261  -15.56622023049559
H         -42.22636852428380   -2.99566903183884  -14.56894462745850
H         -40.67127702291938   -3.39776696642610  -13.84012391249661
H         -39.46147543497888    1.31198184005206  -13.04467379850510
H         -39.43544980558530    1.60355727045182  -14.76169855388478
H         -36.97372130154596    1.04236659082458  -13.04966619316363
H         -37.47593920514033    2.62331050827579  -13.65110864341652
H         -36.95359814405356    1.37411066653727  -14.77950864217001
