251
 SCF done       -451.098182462797          0.000467770704
C         -16.80166054403840  -19.70182444045223   -4.10095201574256
C         -15.83415456129988  -19.16671167460709   -3.22939275135491
C         -15.82728725652110  -19.53873262847985   -1.86431051896266
C         -16.74542395693086  -20.42372392612431   -1.30658264063660
C         -17.73961968530522  -20.92152208308759   -2.16817544866825
C         -17.74955563548157  -20.54676206312569   -3.53288413143437
C         -14.80365717631294  -18.24443438240511   -3.52969236066520
C         -14.00040578076884  -17.93594657242164   -2.46819974550796
S         -14.50736810932767  -18.78087252019893   -1.01686175319810
C         -18.82365230857616  -21.79517549679256   -1.85994701331366
C         -19.58796573466044  -22.08443055867042   -2.93210735545727
S         -19.05831047344087  -21.31777301635660   -4.38736878347530
C         -16.77767044618143  -19.39943415936020   -5.51782609184955
C         -16.64801175241028  -20.81065584200028    0.08740503204310
C         -15.69119839045384  -19.35967723529248   -6.34540456854543
C         -16.04919153281419  -19.04477116682299   -7.67039627069792
C         -17.37833093657188  -18.82668045575703   -7.88027564712377
S         -18.23802280224351  -19.03240972806700   -6.39324238140558
C         -16.32259884406421  -20.02287831972347    1.15475073730098
C         -16.26923635805666  -20.75476826358593    2.35669861327616
C         -16.52644674296363  -22.08812882956176    2.24301110393022
S         -16.86492869975995  -22.46603599265129    0.58905465372859
C         -18.07519796142239  -18.50540367352796   -9.15658753034517
C         -18.95051321587518  -19.67103078148285   -9.61965168584401
C         -16.57385535276422  -23.12025065643018    3.31587078872974
C         -17.99174910780918  -23.65851919817430    3.51207907375251
C         -12.89078902980040  -17.04147817380207   -2.49289242765851
C         -11.98115016662266  -16.70033759782345   -1.50463897903916
C         -11.02540178989554  -15.78193866855262   -1.96480127665991
C         -11.18508024351210  -15.41010129852766   -3.27841819104266
S         -12.55142571963714  -16.20922460561526   -3.98953627894384
C         -12.02167896514219  -17.25698605688868   -0.11504589159608
C         -10.88998698688527  -16.77532102933058    0.78379889090844
C         -10.38814620653519  -14.51428033075091   -4.04279816486036
S          -8.94594193367937  -13.79552746367287   -3.34714855431336
C          -8.61717852940015  -12.96118106931876   -4.82328639186858
C          -9.58594350879391  -13.22443958294495   -5.79325510212488
C         -10.58173953226877  -14.10729609638390   -5.33699910030004
C          -7.54534000792621  -12.11880993156469   -5.14956423580121
C          -7.49875190471452  -11.58402011421449   -6.43697548787791
O          -8.44082082441783  -11.81777365149562   -7.36730510358735
C          -9.52375902778154  -12.63130051204115   -7.11925662850968
S          -6.17789469103123  -11.61936044622385   -4.21330354279617
C          -5.54680801993457  -10.70779490770625   -5.56395149780620
C          -6.36822565566078  -10.78859189426673   -6.66491778811996
C          -4.30893905982945  -10.02026265613691   -5.46440580406209
C          -3.47269391846648   -9.90874585772177   -4.37730354060261
C          -2.29650257996558   -9.18712789575286   -4.62643794882592
C          -2.22891928258882   -8.73886033277772   -5.93689248081645
S          -3.64258362900264   -9.20577926374441   -6.84569880138618
C          -1.22670294708112   -8.92228009200201   -3.61277101785493
C          -1.54915947585745   -9.44040530550949   -2.21711848818019
O         -10.32773264676386  -12.79267239217270   -7.99965575338670
F         -15.13715436078209  -18.96448385425729   -8.65653283513005
F         -15.97824286262323  -20.17231786047349    3.53500746411579
C           2.10911818464636   -6.25911618024458   -7.57481593490535
C           2.37280816883291   -5.75891039511441   -8.86629606416074
C           1.38809768874931   -5.87036959300625   -9.87759981395996
C           0.12885515989874   -6.42655455526389   -9.67604793290114
C          -0.13032197301203   -6.92683669749200   -8.38393258304043
C           0.85417456046265   -6.82241405491591   -7.37099265087342
C           3.52700456449125   -5.06625544156835   -9.31726480967129
C           3.46288515917383   -4.68212839432515  -10.62553685642827
S           1.94184629938716   -5.16006674107820  -11.36211781045633
C          -1.27920949893820   -7.60972430150547   -7.92867651690158
C          -1.21609480562005   -8.00939719847655   -6.62239747698579
S           0.30301268322665   -7.54304891546422   -5.88329924422231
C           3.11066538367814   -6.20030520446494   -6.52954696880938
C          -0.85436160694150   -6.43923198535125  -10.73844351904398
C           4.44993114752696   -6.44887586996384   -6.63695609646931
C           5.11751933119903   -6.28784522838330   -5.40770236532320
C           4.32894027798087   -5.92350627548387   -4.35748976628155
S           2.69101371262187   -5.76913430101152   -4.89428815802856
C          -0.64102844913275   -6.58477273055316  -12.08145936903901
C          -1.82793629326076   -6.44982380004085  -12.82558844008849
C          -2.95123911837494   -6.19189749562282  -12.09772010230424
S          -2.54086956672596   -6.12349097116266  -10.41946961475330
C           4.72989082962818   -5.64376885739310   -2.95072405244289
C           4.63485661570890   -4.15131436656873   -2.62868736461032
C          -4.35213237565993   -6.03283553393570  -12.57720631691369
C          -5.23615381344733   -7.18878278000793  -12.10642522942899
C           4.38547688000339   -3.99472976501953  -11.47254770314716
C           5.72375136361466   -3.66864426579383  -11.33490912656327
C           6.23738421133149   -3.02579506752419  -12.47505115163997
C           5.32225459125402   -2.86000357985969  -13.48818914750550
S           3.77790106408158   -3.49602817213908  -13.02505407854700
C           6.56101117328750   -3.93714105061647  -10.12455867456561
C           6.40262630516282   -2.82239948746731   -9.08802364559101
C           5.45952122256376   -2.29491547094718  -14.78970530329025
S           4.05475045503048   -2.34361736040160  -15.83935817604011
C           4.93563150677101   -1.56651234600483  -17.09363241799581
C           6.24965368427460   -1.28383248574561  -16.72080917249249
C           6.53442242409833   -1.70545696985913  -15.40452259726063
C           4.48804720679715   -1.20367218100402  -18.36787521057627
C           5.37517635240654   -0.56341566767247  -19.22987311681959
O           6.64768721185390   -0.29299883311396  -18.88203080475138
C           7.16045176706652   -0.62262063885732  -17.64268873598846
S           2.93523371707978   -1.40893117336732  -19.08572192682829
C           3.47648355926778   -0.62154237020622  -20.54689055813548
C           4.79698020841771   -0.23482688722432  -20.46696392319481
C           2.53158022944990   -0.44199457711144  -21.59493041266663
C           2.66354272447407    0.18174074750644  -22.81570549482415
C           1.48255265803369    0.21405326844199  -23.57366513320233
C           0.42546516694939   -0.40179046606606  -22.92110533346505
S           0.91277031174957   -1.02715880544959  -21.37202842501636
C           1.34786099220318    0.83874043624813  -24.92838831839752
C           2.66380415720597    1.31846434234521  -25.52717878568058
O           8.30877839934123   -0.34131187473185  -17.41566820268465
F           6.44330532769570   -6.48950956622178   -5.28426089701260
F          -1.84600489579655   -6.55566874311685  -14.16741252996366
C          -4.43568708928149   -0.15613035978300  -24.91061447574516
C          -5.60902429458162   -0.71133223123163  -24.35769973938838
C          -5.53121326395128   -1.52198379451121  -23.19981346267386
C          -4.34602390341869   -1.78324853704233  -22.51951471338111
C          -3.18443418328082   -1.17667785659423  -23.03973542925212
C          -3.25591633835738   -0.38517942163582  -24.21336986669289
C          -6.94704968438428   -0.50517586384362  -24.76668239054811
C          -7.87642151741182   -1.13318287402738  -23.98387686747538
S          -7.11326224147857   -2.04828116965968  -22.69786188891758
C          -1.86446364059313   -1.25733646400180  -22.54635426721979
C          -0.94599127855542   -0.55339324166583  -23.27503168362924
S          -1.68449718220746    0.22417728318774  -24.66007109554740
C          -4.48208286282505    0.60293728508265  -26.14265985103016
C          -4.34251579002773   -2.61152939656897  -21.33100348545089
C          -5.21334130046938    0.32553919831075  -27.26347068848550
C          -5.00713135117646    1.27951963436812  -28.27807757687879
C          -4.13962054470083    2.28436056797520  -27.96802735596415
S          -3.54219029641017    2.05385550809930  -26.36056352613348
C          -5.10375747910033   -3.72314835026073  -21.09646306233205
C          -4.88646596366593   -4.25526236087561  -19.81197738608473
C          -3.99176765258753   -3.57664363914193  -19.03889397145628
S          -3.37375416647607   -2.23048645381271  -19.93103729029288
C          -3.74384171022241    3.45475956781704  -28.79948711033277
C          -4.35455231252228    4.75124454864060  -28.26425023603924
C          -3.52179880526042   -3.90381862274901  -17.66401834819183
C          -2.08018941198900   -4.41598831916736  -17.67158050547412
C          -9.29136484852330   -1.05511191962643  -24.12833314907632
C         -10.30411447950653   -1.66385661901059  -23.40307210300401
C         -11.57499767754467   -1.27167804578494  -23.84679078609782
C         -11.56030563400748   -0.38048447261411  -24.89343999955050
S          -9.93429934604800   -0.00881678261897  -25.37080709376179
C         -10.06170955266268   -2.62260353858555  -22.27879201073322
C         -11.33019306814190   -3.22415540098092  -21.68710324586084
C         -12.67795970651540    0.22460282958208  -25.53124090985366
S         -14.29816593944472   -0.10994109327854  -24.94318082675613
C         -14.97346704657630    0.95269996912179  -26.12297060993800
C         -13.99037612178560    1.52494746286669  -26.93086803801970
C         -12.69276539059591    1.10330765476431  -26.58237806802324
C         -16.31515247554867    1.29553176923463  -26.34010295277735
C         -16.60756281915105    2.19625489399192  -27.36223637920785
O         -15.66540311841891    2.74191586800185  -28.15147066908148
C         -14.32653950122885    2.45721150246693  -27.99515711183955
S         -17.74978390248109    0.79362122087547  -25.51438707700975
C         -18.73338767589058    1.80120397081035  -26.54803638514140
C         -17.97807256367279    2.47710184376912  -27.47567754926124
C         -20.14365844941236    1.85244022084481  -26.36066775815237
C         -20.89834020529901    1.19093895081910  -25.42510136937588
C         -22.27796525572659    1.47272747372675  -25.51127495926239
C         -22.55060168867572    2.35225560121923  -26.51739372764451
S         -21.14914939957361    2.84849113577417  -27.37560211429810
C         -23.30067104392527    0.90809290280377  -24.57669826650028
C         -23.25421629498409    1.62477922247036  -23.22632122851868
O         -13.54199286994527    2.99181876998937  -28.73455594949754
F          -5.61607647956166    1.19233784356008  -29.47468543048959
F          -5.52885005687434   -5.35565543413258  -19.37832819716481
H         -14.66909539779350  -17.80116241459013   -4.49954111120891
H         -19.02155620318586  -22.17594546361635   -0.87547111790414
H         -20.45844958372021  -22.70955970394240   -2.97007912670015
H         -14.68543184368228  -19.58752268167401   -6.04500115267149
H         -16.16268175215965  -18.96227867733528    1.10734549606002
H         -17.32047749962295  -18.28287445815720   -9.91383558910915
H         -18.69902564502473  -17.61841708920228   -9.01994747065870
H         -18.34338961189273  -20.55773556043593   -9.78670674265117
H         -19.45464124259304  -19.41518432360573  -10.54782718007275
H         -19.70008269295020  -19.90139723233268   -8.86568105675166
H         -16.21654394930282  -22.66667915911723    4.24281066710421
H         -15.90746786984002  -23.94775497765774    3.05818493399979
H         -18.66919158494650  -22.85241533053812    3.78453453915733
H         -18.00336513784226  -24.40388563705936    4.30284047059045
H         -18.35037479111554  -24.11841675910841    2.59369519961035
H         -10.22791756533829  -15.38752137436914   -1.36186111500687
H         -11.99307591549161  -18.34946818711393   -0.17382251848407
H         -12.98031668849179  -16.99108669537582    0.34120281076281
H          -9.92267413201689  -17.05327670871452    0.37189087689039
H         -10.98671445588475  -17.23305209443352    1.76524589812458
H         -10.92467535011184  -15.69553066565528    0.90746064814813
H         -11.40624011582489  -14.42832885830275   -5.94691729961036
H          -6.16170880247166  -10.30011577755455   -7.59876001291908
H          -3.72242687835816  -10.35080020611241   -3.43012120752810
H          -1.05012553390934   -7.84335333952910   -3.56444009184303
H          -0.29419918132999   -9.37824535931679   -3.96021099198472
H          -2.46343889748670   -8.98949535040873   -1.83863028516175
H          -0.73795057079580   -9.18668386250395   -1.53914783010363
H          -1.66370249326197  -10.52166323970330   -2.22045897524858
H           4.34505225851936   -4.82986476317947   -8.66591962146986
H          -2.13032744889143   -7.82673461175036   -8.54737113534647
H           4.93950709452121   -6.77878772074167   -7.53426466533999
H           0.30443413396345   -6.81761622900078  -12.53364186804611
H           5.75679279308507   -5.98823266716697   -2.81090034524564
H           4.08228993534711   -6.20119663872132   -2.26946923353173
H           5.29021560276322   -3.57977622598137   -3.28186955778282
H           4.92944056728559   -3.97142090751248   -1.59822753807956
H           3.61455781591382   -3.80055901860134   -2.76736144330871
H          -4.33858928550780   -5.99590699001053  -13.66858526208655
H          -4.76297210965592   -5.09049572870749  -12.20526195814207
H          -4.85359300397508   -8.13558598061391  -12.48065860338286
H          -6.25108049586949   -7.05653456784374  -12.47132568616754
H          -5.25790404283418   -7.22820176801704  -11.01942698071905
H           7.26063120193612   -2.70487454238153  -12.55459623976431
H           7.60810691054267   -3.99705150160578  -10.42659400588203
H           6.28154492247935   -4.89679669468416   -9.68696708311453
H           6.74254083077651   -1.87558801238259   -9.50091127292196
H           6.99141205453283   -3.04551981401830   -8.20156377029960
H           5.36034030716907   -2.71081143960262   -8.79769901041227
H           7.49572341135511   -1.57056666582702  -14.94547587314187
H           5.32871046823530    0.26506460501938  -21.25359546786489
H           3.59340177126777    0.60900812789164  -23.14024565127205
H           0.65420928473132    1.68271403654695  -24.85678032867259
H           0.88814318577766    0.11119785496602  -25.60391833672344
H           3.10291833232250    2.10690410030034  -24.92076563673312
H           2.48693691362277    1.71610711656105  -26.52343936632278
H           3.37301728162284    0.49794566955722  -25.60812657486763
H          -7.22598574494253    0.12483980651462  -25.59156853185555
H          -1.58542876653755   -1.81722345663667  -21.67306371726859
H          -5.84017035727339   -0.53807640738836  -27.38547201322949
H          -5.76322823919633   -4.17668579729333  -21.81215353375940
H          -4.08493606554332    3.28030450330068  -29.82213087886371
H          -2.65478769917653    3.54539821011046  -28.80801923588399
H          -5.44017695174777    4.68858144417940  -28.26861512004401
H          -4.05301546901982    5.59086151068493  -28.88490774637862
H          -4.02107162303589    4.93191844477575  -27.24473654240799
H          -4.18171361175829   -4.66990251151110  -17.25150738945135
H          -3.58526011024795   -3.01470186265811  -17.03177980574203
H          -1.99457652056079   -5.29344140379470  -18.30823031224940
H          -1.77685319517059   -4.69077432241460  -16.66511035315594
H          -1.40647667730618   -3.64769012319171  -18.04493131768160
H         -12.49728311704123   -1.61950293266069  -23.41857222490590
H          -9.50807241641559   -2.10519959606468  -21.48884034067757
H          -9.41691539327791   -3.42990810433966  -22.63907811007721
H         -11.96400264159648   -2.45156527180455  -21.25838991675668
H         -11.06538698582684   -3.92300495459609  -20.89748898479305
H         -11.89341518681032   -3.76351217341493  -22.44502158658366
H         -11.80823639227127    1.44150704681722  -27.09038236757059
H         -18.39029207442300    3.14902479136719  -28.20505779547627
H         -20.46773733375654    0.52036565292569  -24.70216350281370
H         -23.50633924735505    2.74006556302825  -26.81019261132676
H         -23.10440450577096   -0.15591196687575  -24.42846005350725
H         -24.29447529720946    1.01660225121402  -25.01402006922532
H         -22.27048371828888    1.52231417317172  -22.77437321579774
H         -23.99288223392718    1.20284908114903  -22.54941515002015
H         -23.46475021500977    2.68426760780381  -23.35325776992693
