290
 SCF done       -497.165674104071          0.000553452980
C         -11.11796339185947   74.55963696848038   29.01471555869863
C         -10.65403968297581   73.92378247015887   27.84014181068489
C         -11.44394287211887   73.73056619987594   26.70867685767041
C         -12.77068348738750   74.19675760130889   26.78353194817337
C         -13.23340070453928   74.82891005092317   27.96266448167432
C         -12.44701339662017   75.01313665187894   29.09288324554631
C         -13.79347154734646   74.09494562992064   25.81155429947564
C         -14.99075407707796   74.63115508249570   26.19443263119508
S         -14.90627081053420   75.28753391617123   27.81762361711663
C         -10.07885999151637   74.70485667068174   29.98091315149043
C          -8.90135214061593   74.19593556024989   29.56717958197615
S          -8.96833063085094   73.50068915097556   27.98490827435129
C         -12.96264130344825   75.63502933214107   30.29741115674253
C         -10.90420147705321   73.10695749154789   25.51789814600382
C         -16.16444155466069   74.68909265190847   25.38760285258573
C         -12.78178191677601   75.23848215130235   31.59063073775642
C         -13.44049639722377   76.08031663832148   32.51322003260314
C         -14.11173061657745   77.12361260493650   31.94626353668896
S         -13.95149579511637   77.06581613963370   30.22416631696765
C         -10.03155543875720   72.05887712549486   25.44080205570292
C          -9.67860053151462   71.74071579094449   24.11208849011440
C         -10.24891463119000   72.54201540178811   23.16655352349936
S         -11.26814345091372   73.71457834892253   23.92540206250373
S         -16.05378417855783   74.05087009845263   23.76369054722820
C         -17.70350709666821   74.47504093913487   23.42925074807303
C         -18.28200894053810   75.06544488079743   24.52943282311604
C         -17.43000333159635   75.18801948979896   25.63795792971680
Cl        -13.38686341794368   75.80236380489087   34.21318265045718
C         -14.94087648092851   78.17115936855897   32.60294348998615
C         -16.43219581063411   77.86191097671195   32.45442157058167
Cl         -8.60807422543871   70.44694022428394   23.73035243457374
C         -10.13999730188689   72.46766634687594   21.68389144099610
C         -11.38241360263399   71.81421856380139   21.07377386993678
C         -17.88271888969745   75.83610796500895   26.90832862405155
C         -17.54383499342011   77.32793867556376   26.91463567755229
C         -18.28345578154198   74.22952513209951   22.15474661176839
S         -17.40646027572742   73.35076285961223   20.92903800215887
C         -18.71333349574008   73.53831858932550   19.81360445568763
C         -19.76451562812327   74.24464424194555   20.37738920276025
C         -19.52010090620446   74.63439874283500   21.69306836185050
C         -18.78403595846893   73.08014444220510   18.47324020190854
C         -19.98512558891379   73.08529006305369   17.78243545107957
C         -21.23144413977813   73.44476305338527   18.53706562513702
C         -20.93531409881479   74.59756703129727   19.50663052598067
S         -17.48266742498289   72.52505100097528   17.47890340323308
C         -18.56646672892695   72.32314915031128   16.12384678894033
C         -19.86030889325682   72.65970182716973   16.46029272912473
C         -18.06313905432367   71.88550720448556   14.87027086802965
C         -16.79434090098483   71.43433554280897   14.58842314807001
C         -16.58240020982667   71.10476329126908   13.24261170636793
C         -17.71910596498639   71.31081345331307   12.47539348417237
S         -19.04459260701216   71.90632713813878   13.43877789027898
C         -15.27036297226712   70.63531675215859   12.69049935942880
C         -14.08197133775105   70.91911149068608   13.60285598746355
N         -22.35168322362190   73.74446620332463   17.68625340125638
C         -23.29877034403480   74.42773259159165   18.21595984375779
C         -23.22330376440949   74.90900655271109   19.61771305757442
N         -22.10866023926580   74.97666103779378   20.24892611118469
C         -24.50800247147750   74.68893591924733   17.47672660712383
C         -25.58738068227439   75.19214956225869   18.10484494195011
C         -25.55957259281763   75.51295911217257   19.50534305907185
C         -24.44027409008864   75.36631654635353   20.23928316251555
C         -17.50381896317479   70.65469572992316    8.82430029030065
C         -18.59378746531088   71.54867852849230    8.68980003966896
C         -19.14906622857082   71.89958249579438    7.46265989202597
C         -18.53197563833953   71.35523977375613    6.31657219985077
C         -17.44795497726938   70.45624654567550    6.45534442499065
C         -16.91264069052825   70.08045573696805    7.68225962477130
C         -18.78076881037443   71.66586719696852    4.95932230228267
C         -17.94728112859202   71.04080582084875    4.07401657695269
S         -16.81891438076167   69.98476342549343    4.90209485666936
C         -17.14663906037109   70.44816514669769   10.17888216650440
C         -17.88412342086135   71.17853901534633   11.06475924453490
S         -19.12295137318183   72.11917976022941   10.24852603506592
C         -15.76750239312891   69.19575743762144    7.75094663771675
C         -20.29792485730631   72.77628633297381    7.37482196129270
C         -17.91640449138637   71.25847836350977    2.66613900484102
C         -15.50041830209075   68.10924498330354    6.96874033663648
C         -14.25375515999906   67.51573719496845    7.26363893890854
C         -13.54707937059161   68.14037363701779    8.24846958843177
S         -14.44548977852408   69.49266133184221    8.84809708555616
C         -20.60634049391411   73.85319117863074    8.15698037813632
C         -21.83928496443473   74.44416402556176    7.80859000257900
C         -22.49584444602471   73.82664780030514    6.78436692437104
S         -21.56556567424563   72.48589010074514    6.21310581448624
S         -19.00111546318437   72.46882698640205    2.01456681764770
C         -18.33033565734214   72.27908750412576    0.42277298728893
C         -17.35449476563910   71.31186352648488    0.42132249324024
C         -17.11647317606809   70.72327688341024    1.67294292195418
Cl        -13.68431078539049   66.11931779345358    6.43143998975756
C         -12.22768885481808   67.77915249136579    8.83572022681960
C         -12.37872761348529   67.27028002121823   10.27040422013220
Cl        -22.45742711975386   75.82971384798320    8.62336168110193
C         -23.77808703125750   74.20565376682104    6.12991002892447
C         -23.52369156981370   74.96841120761349    4.82742360478764
C         -16.06545043851610   69.67435116654745    1.85434237896277
C         -14.71132024773747   70.30705601348538    2.18031946286762
C         -18.75099025920548   73.10745122679457   -0.65060233084755
S         -17.84958034047945   73.13641446384042   -2.14650729183815
C         -18.87240310884113   74.38422796171777   -2.77047536659150
C         -19.86806154087119   74.72353789184672   -1.86842466690946
C         -19.79792080953414   74.00432520412696   -0.67663604773386
C         -18.71858105928708   75.10292103380743   -3.98380990322267
C         -19.35867643119211   76.31766344466119   -4.17176836203111
C         -20.18164138770780   76.87850230166032   -3.04860642505298
C         -20.88452410596565   75.74085882374827   -2.29485743702111
S         -17.71415775707004   74.69955235231518   -5.33392394836668
C         -18.14282416575632   76.19065339105772   -6.13560775003013
C         -19.02716633448486   76.93015162100957   -5.37971947418357
C         -17.54003408685285   76.54742142893417   -7.37074149561710
C         -16.65105347798161   75.81844351661736   -8.12593632570190
C         -16.16260044643005   76.49323858315402   -9.25500776259358
C         -16.68529769318541   77.77084265969415   -9.36023316722699
S         -17.81284705618326   78.11074229051221   -8.07457079970122
C         -15.21184015032093   75.89273026526524  -10.24651059330989
C         -15.26217978822907   74.36842359682645  -10.28767975497478
N         -21.11615958764488   77.88718864122806   -3.47142530862248
C         -22.09608301764311   78.12014701507800   -2.67764069849695
C         -22.27137977282300   77.36504771376090   -1.41214222310106
N         -21.68630749531274   76.24169431647260   -1.21030934641890
C         -23.02634987977264   79.18300067867906   -2.96354687096462
C         -23.90536755578009   79.58076101533005   -2.02447531905491
C         -23.96689429637306   78.94683372593863   -0.73622019856818
C         -23.17943917929335   77.89888674511718   -0.42865750396310
C         -15.28409189099579   80.20902158923120  -11.79431043345020
C         -16.49654471225707   80.92279384589975  -11.63678987300113
C         -16.79067287499975   82.09898056959376  -12.32092907126758
C         -15.79013875836264   82.59052821428588  -13.18464510260725
C         -14.57267494738416   81.88217744351716  -13.32792724278130
C         -14.28306674342976   80.70408997208484  -12.65199008879216
C         -15.78656947692672   83.78877908788279  -13.93578299562782
C         -14.63213971984583   84.01324707828726  -14.63347143057607
S         -13.47793472555278   82.71705673665369  -14.39156892777317
C         -15.26477797288162   79.01151152412794  -11.03640990231231
C         -16.39385941156988   78.80826066116624  -10.29774517432294
S         -17.55796506437817   80.10186741713171  -10.52635333904098
C         -13.01114885527651   80.02485367323199  -12.80394155701927
C         -18.06813740850433   82.76027218903775  -12.15131071545819
C         -14.36834671707838   85.13722027149268  -15.46861772778032
C         -12.22380919887600   79.48027723839110  -11.83090654056033
C         -11.04137655417294   78.90695509161962  -12.34696948661134
C         -10.91592716248355   78.99392754138708  -13.70233343515365
S         -12.28110060932888   79.81999429826658  -14.37151247289188
C         -18.80806214373260   82.87591252551633  -11.00816847882281
C         -20.03902426090512   83.53061662760777  -11.22054981960450
C         -20.26059620833117   83.91833197455946  -12.50993444587736
S         -18.91997895271563   83.46237466468324  -13.50065416170583
S         -15.68919168774172   86.23910826570852  -15.78291881233203
C         -14.67602121402220   87.25546394127069  -16.75981021090502
C         -13.39855319694647   86.74714993606095  -16.82013115594392
C         -13.21127904665545   85.55828932080604  -16.09927993663252
Cl         -9.86439977137123   78.15716187959048  -11.33523103091820
C          -9.78879648067823   78.55086325769223  -14.56803918555102
C          -8.86802623827292   79.72563135253954  -14.90670940973502
Cl        -21.16121434185342   83.82171538405207   -9.94776691256414
C         -21.46023861756225   84.58436383363636  -13.08758884404699
C         -22.48808143931722   83.55186387102644  -13.55758432605064
C         -11.88933632859381   84.85766916332412  -16.07537708451355
C         -11.80143318963837   83.80802009094764  -17.18480945547156
C         -15.17371207545646   88.43897011848206  -17.36989241586119
S         -16.85883872854768   88.87532772504444  -17.24989501690336
C         -16.59019096460064   90.30164807570014  -18.18871412189091
C         -15.26115865568383   90.41855777946881  -18.56317549433333
C         -14.46520685041629   89.37344720822593  -18.09853205665813
C         -17.54303658933025   91.27169443829951  -18.59674443908499
C         -17.24326316384315   92.18269448643144  -19.59511780764240
C         -15.92879496551680   92.05232207168024  -20.30787679333012
C         -14.83734501369790   91.65204512664741  -19.30551197037844
S         -19.13764321386951   91.51963092074358  -17.97143143459894
C         -19.39012939374485   92.85713647364699  -19.06410072776007
C         -18.28747012911161   93.07007216432410  -19.86060645844421
C         -20.62126131127928   93.57199186345180  -19.05846117620173
C         -21.72711828256942   93.35705288988925  -18.27749836622084
C         -22.78498128622874   94.25658829078007  -18.53381372683749
C         -22.46525374402232   95.14666487731334  -19.51436091393882
S         -20.88056441480341   94.91328385116019  -20.14017125997161
C         -24.10838110503087   94.19873668746045  -17.83799114638576
C         -24.95894344041295   93.05209361204990  -18.38603063284405
N         -15.55927368050758   93.22857141467102  -21.04904721929741
C         -14.31487834020596   93.35219587855967  -21.33350285620864
C         -13.31064036838662   92.35252686189378  -20.89308665353461
N         -13.55351641571933   91.52572861698403  -19.94290945634627
C         -13.86277896882018   94.44345275913673  -22.15915714151546
C         -12.60906116500740   94.44454803484744  -22.64993660514913
C         -11.68284140825255   93.38868502893021  -22.34640166029100
C         -12.01448284702340   92.37685930454641  -21.52239828643146
H         -13.66202104698186   73.63031933184887   24.85184322787700
H         -10.21551491917471   75.19400364098328   30.92743660589753
H          -7.96839341811531   74.17671268084396   30.09567113844045
H         -12.23704646209906   74.35856408918933   31.87942490624700
H          -9.67647498956540   71.50486104210519   26.28958331742936
H         -19.30393821178953   75.39937944037847   24.54025228182972
H         -14.72709518215589   79.14209747635488   32.15095883323979
H         -14.67676230890178   78.21521511350369   33.66119065169600
H         -16.70218314278095   77.81265765573787   31.40189213369677
H         -17.02580821158256   78.63645816289748   32.93297168442084
H         -16.66722433603982   76.90658790560647   32.91754374154214
H          -9.25312797319728   71.88477830070585   21.42800570663781
H         -10.02440528521394   73.47398983934205   21.27513826893838
H         -11.50644545227130   70.80561230747010   21.46092088254006
H         -11.28594725968902   71.76258247739729   19.99248533463379
H         -12.27176074669042   72.39130350363553   21.31744110442278
H         -17.41702937409381   75.35298426066041   27.76845036692579
H         -18.96428000244425   75.71314259559333   26.99482045874241
H         -16.46907549958807   77.47556980387907   26.84879391450536
H         -17.89892068824244   77.78891186119792   27.83266549202516
H         -18.01410684482872   77.82531479077949   26.06925633088517
H         -20.22343773068125   75.19846649409338   22.27572581268564
H         -21.51484258026699   72.55423604824998   19.13523803607464
H         -20.63625169667026   75.48366437552399   18.90925179961816
H         -20.68374519946016   72.60202488158193   15.77234009283449
H         -16.04501123106425   71.35784782271574   15.35494538056898
H         -15.10600942837088   71.12079632177866   11.72452511279808
H         -15.32633133787571   69.55724802553070   12.50828222999725
H         -14.03705449771692   71.97530594092137   13.85707788595780
H         -13.15957434643306   70.64939729320390   13.09357615134472
H         -14.14355981612265   70.33952328475401   14.52046539712549
H         -24.51726318784696   74.41204051095559   16.43427115716126
H         -26.50879001887885   75.35605216943439   17.56562129120279
H         -26.46583790039141   75.88872868077503   19.95728156406568
H         -24.39090741061337   75.63199955113694   21.28364727918603
H         -19.52706139619741   72.36666360548087    4.63330882614978
H         -16.39733806188298   69.74484716951710   10.48075107490167
H         -16.17578691976614   67.71645441429399    6.23185592000553
H         -19.96978619853547   74.24282054646233    8.92905211942868
H         -16.81851088212339   71.03928421277755   -0.47136479376397
H         -11.57379284985097   68.65496281677272    8.83217895482786
H         -11.77189798036736   67.00643169067811    8.21420281155973
H         -12.82156037100532   68.04050816695090   10.89827111527737
H         -11.40737649176304   67.00336688016721   10.67832543423186
H         -13.01941405528831   66.39185058218813   10.29428731700637
H         -24.34974884652375   74.83212193058075    6.81735802720763
H         -24.35847139286027   73.30603252802921    5.91405893554020
H         -22.95887685506891   75.87607834025503    5.02672199285006
H         -24.46756524819095   75.23997706759323    4.36179715793868
H         -22.95635860048984   74.35181120879720    4.13376652062448
H         -15.98041815249636   69.10493058518986    0.92640622306916
H         -16.34823878211865   68.98450042272162    2.65034297444775
H         -14.40517022818959   70.97694661829156    1.37990115294626
H         -13.95587953644661   69.53464959688939    2.29823118249314
H         -14.76895673945644   70.87649721735288    3.10451737130998
H         -20.47973412988759   74.14005189127023    0.14263890332680
H         -19.47503107209277   77.37298643418485   -2.35003232983057
H         -21.57684808214798   75.23617807156332   -2.99934192886405
H         -19.41354017709671   77.88419675742861   -5.68843821472268
H         -16.36441986227586   74.82052090203837   -7.84782003428902
H         -14.19221286089492   76.20762033457974  -10.00101057943875
H         -15.44864994013001   76.28766693621363  -11.23780270238893
H         -14.88493700813513   73.93757453403346   -9.36388691200792
H         -14.64613687943240   74.00349186785496  -11.10632641989977
H         -16.28188587033362   74.02383572107162  -10.44359957421281
H         -22.94206704398528   79.66636542386436   -3.92412381302570
H         -24.58142871515888   80.40042206641081   -2.21885199312622
H         -24.67559059283436   79.32964550643992   -0.01650604887502
H         -23.23234281243174   77.38950874870180    0.52081690615679
H         -16.60182055584113   84.48852907207160  -13.95104975419788
H         -14.42603437905214   78.34395172508695  -11.02991578827639
H         -12.44771650316671   79.52379584430525  -10.78101938384922
H         -18.48296723893476   82.54265658421556  -10.04034474614876
H         -12.60911070699314   87.22257064292880  -17.37367181299800
H         -10.18426772354199   78.12406856440366  -15.49209758134030
H          -9.22297596701754   77.77923935791725  -14.04233455609768
H          -9.42602000741616   80.50162001138393  -15.42607850239321
H          -8.05344480601283   79.39271633145184  -15.54464789555157
H          -8.44808935105203   80.14995687518949  -13.99772779687870
H         -21.15872870140558   85.20818084304156  -13.93095285346923
H         -21.90971671366711   85.22289396404514  -12.32378912113084
H         -22.05487200048877   82.90887867688313  -14.32051081212633
H         -23.35796141606490   84.05218924151403  -13.97507043845108
H         -22.80862128748200   82.93273460992091  -12.72329619113645
H         -11.72994496204258   84.37907330932319  -15.10816254236849
H         -11.10129225344918   85.59961162401441  -16.22052515593859
H         -12.56485227690903   83.04612719611083  -17.05065837419617
H         -10.82709951126755   83.32628609466457  -17.16799914102734
H         -11.94405848420223   84.27402664318166  -18.15728946834127
H         -13.41118269379979   89.31205562394472  -18.29188444299108
H         -16.04035316398332   91.23221481806135  -21.04677805391882
H         -14.74233838209744   92.46472106125600  -18.55604212895861
H         -18.23600417699704   93.84260710189842  -20.60570822083807
H         -21.77087690138098   92.57593005283752  -17.53888234806458
H         -23.07068070477562   95.93794042299891  -19.91022536495298
H         -24.63588822089605   95.14410927957208  -17.97676701538144
H         -23.94637155705830   94.04942759708459  -16.76817447338426
H         -25.14364051532560   93.19357525057079  -19.44861497155871
H         -25.91505398381085   93.00939681829769  -17.86991592369597
H         -24.44805507683262   92.10175997260019  -18.25052915902091
H         -14.58293903976287   95.20932202522347  -22.40072104660962
H         -12.27411238727421   95.24199880102255  -23.29684841228493
H         -10.69963392766620   93.43343839965397  -22.79139087873250
H         -11.32290053234912   91.59260581083480  -21.25710709090781
