88
 SCF done       -150.612747475935          0.000246981856
C           0.63958687357301    1.47136778033673   -0.16889246989366
C           1.81829780533577    0.77799477453717   -0.12968658966591
C           1.86568081124323   -0.62513415775357   -0.09285582694154
C           0.71343606925368   -1.39702703027600   -0.09734063658887
C          -0.51851546648520   -0.67948963992624   -0.16100570892199
C          -0.55937244016847    0.73832508018357   -0.19122072908152
N          -1.66095199871782   -1.37499412503108   -0.14808331137112
C          -2.81671080240762   -0.75308010364886   -0.17318937887380
C          -2.85196763280327    0.67636610490620   -0.28683244510733
N          -1.74154120354971    1.37648838317543   -0.27055561951749
F           2.98378661940021    1.44750973934682   -0.11440358658002
F           3.08466501880727   -1.19283228222292   -0.03268794615590
C           1.74098716288802   -3.72052591767369    0.04322748657694
C           1.34693112661804   -5.04880961292968    0.22205296808357
C          -0.01439371624065   -5.19675933189478    0.34297326342986
S          -0.82442274381506   -3.65846163077041    0.20049837230664
C           0.68981132161200   -2.82978579722155    0.01162159555513
C          -4.00905469016706   -1.59107804989863   -0.04632232828947
C          -4.07624355742854   -2.78172125329909   -0.76562353901468
C          -5.16143914064877   -3.63877753840166   -0.66988847840078
C          -6.20507437995051   -3.30749116569152    0.22046529259470
C          -6.10951756982950   -2.12474403494099    0.95425758229382
C          -5.04347227699653   -1.26366273866719    0.82288624992683
C          -4.09932691434205    1.42413316529851   -0.45552024980502
C          -4.24801393321233    2.66244368972952    0.15670394167476
C          -5.42428291311261    3.37106933349749    0.01136571205847
C          -6.47781955815042    2.88843090996459   -0.75878925048069
C          -6.31549836742873    1.65558571157692   -1.42636107974255
C          -5.13303419920056    0.94830908891530   -1.25437838820708
O          -7.66783709191065    3.54529119805477   -0.89697122663038
C          -7.84389018855997    4.80510461998482   -0.27981387308894
C          -9.24012773491376    5.29313663794098   -0.63481812198838
O          -7.21808566969151    1.03579272887645   -2.23177276799189
C          -8.33991293170706    1.72074052583118   -2.76430314909039
C          -8.96553889545667    0.80621769623396   -3.80705936282903
O          -7.32503222718381   -4.02616160981633    0.48203969295486
C          -7.70294634046429   -5.15144001795258   -0.29332912580787
C          -9.05798164913889   -5.61114643016395    0.22419841720946
O          -5.27523468206194   -4.79462542104820   -1.39688424482766
C          -4.44142944252650   -5.01211804233733   -2.51979782760862
C          -3.14068352923189   -5.72870807466244   -2.17397407733735
C          -0.79025283110874   -6.39205593603319    0.57251617437352
C          -2.11035284429018   -6.30419214551036    1.03512866525160
C          -2.87851651059256   -7.41896122543630    1.27358868495637
C          -2.36618921613831   -8.70491784561426    1.06436650659115
C          -1.05655932524417   -8.81315504722498    0.59225443950251
C          -0.30297178280518   -7.68631539117568    0.35722723716104
C          -3.15242490271856   -9.88733904574451    1.33053678259661
S          -2.49013215508612  -11.47777526214944    1.06488566250949
C          -3.94021662035213  -12.22086579032328    1.59761757635741
C          -4.88020554314883  -11.30843333200916    1.95836362938908
C          -4.43490347302786   -9.98215890582819    1.80703464925828
F           0.94892042303623   -7.86994650522619   -0.11542021837593
H           0.62122914200226    2.54757800491218   -0.18817420886670
H           2.77033280842581   -3.43177199737277   -0.05785000350624
H           2.04989433041688   -5.85895766026323    0.28041312698023
H          -3.25016913172099   -3.01700880590423   -1.41529806844050
H          -6.91852062159229   -1.90205166215200    1.63164395207224
H          -5.00156783461163   -0.35841966732227    1.40770166590584
H          -3.44522631906993    3.05645519683049    0.75854429090240
H          -5.52140688126694    4.31807074621798    0.51723113683018
H          -5.04070511601875    0.01473380044411   -1.78550498742377
H          -7.08958297970869    5.51503906749163   -0.64576828046295
H          -7.74230731502211    4.71045101168949    0.81001385101921
H          -9.34129830763870    5.38086826643278   -1.71317186780174
H          -9.41824534086531    6.26302785659391   -0.17966982076010
H          -9.98361707300357    4.58798048860811   -0.27342737433811
H          -8.02410885274201    2.66328901023758   -3.22580728516477
H          -9.06288802713589    1.94326950493863   -1.97222657166826
H          -8.24888986364721    0.59309560160056   -4.59565387428944
H          -9.84074024281057    1.28320047346487   -4.23884213323288
H          -9.26035037511988   -0.13220468247452   -3.34570998280721
H          -6.96240062723287   -5.95191682520073   -0.19128659728249
H          -7.77514357058534   -4.87511050100974   -1.35124491933844
H          -8.98535411158756   -5.87126644533190    1.27666049245792
H          -9.39175300830184   -6.47951397918030   -0.33646067674877
H          -9.78828224966586   -4.81381125051842    0.11608221851932
H          -4.24290971422537   -4.06682151027910   -3.03804545361255
H          -5.04101259321971   -5.64784299807653   -3.18040924685437
H          -2.51427069276102   -5.12102420285627   -1.52748691299227
H          -2.59517666681345   -5.94890810101872   -3.08759361057502
H          -3.35702502851154   -6.66156790293631   -1.65931045075347
H          -2.52690390273153   -5.32391915277141    1.21396161035684
H          -3.88739661396136   -7.29251199691787    1.63153559313854
H          -0.61710249119155   -9.78122723489954    0.40502658470077
H          -4.00742408504238  -13.29056919158139    1.61120458642667
H          -5.85762511035229  -11.57165759917255    2.32154957908199
H          -5.04672567239699   -9.13197239232589    2.04722461415452
