191
 SCF done       -365.369275624374          0.000398548423
C          13.59336634002691    3.84177665263025   12.02859430342584
S          12.64141736205916    3.48424212422703   10.63464703735234
C          12.81020361208684    5.12095517322054   10.08634107907138
C          13.57797569796461    5.89590827521853   10.95980703357494
C          14.01528991685760    5.12649558556006   12.07270561053675
C          12.27884009609907    5.67914398652551    8.92289394219697
C          12.49367078994075    7.02884106391687    8.62008805573299
C          13.27649937329583    7.84961946217517    9.49482918791132
C          13.83237412774770    7.27422934379377   10.67193372621644
S          11.33511844220057    4.87097137391474    7.71628203009629
C          11.22288783700719    6.35062733168892    6.78805496029594
C          11.87659593207261    7.38619326894277    7.40136607788161
C          13.50840797349678    9.20144767817500    9.19063993281131
C          14.28443600770098    9.94247572907962   10.04297098818657
C          14.84194331441116    9.36961847277950   11.21265057279418
C          14.62301867081154    8.05541855243786   11.53272988703003
N          14.68012138849946   11.25938999748903   10.01253258879435
C          15.47707774045286   11.52862110673926   11.10763119597737
N          15.56973383052997   10.35740994477252   11.83477833514041
O          15.99610506870615   12.58719345043936   11.37953894037312
C          14.39838595097967   12.22560102233125    8.98097876585271
C          15.26387970920850   12.00087702729583    7.74439020553337
C          16.27670319646428   10.25890572835325   13.08620677067169
C          15.32525251596791   10.30914057981588   14.27821605621360
C          10.54063845798995    6.36546202678200    5.54076560688764
C           9.96856643742355    5.30013873311837    4.87761913897772
C           9.42209901835638    5.64668015370650    3.64510887893584
C           9.55333890343340    6.98683692241516    3.34062073133558
S          10.37065802492804    7.83060014253137    4.62889514568611
C           9.13928854400404    7.65114632243746    2.14168280990400
C           8.70026521631604    6.93165919172309    0.99351896956817
C           8.35293537874866    7.59897306728747   -0.23640113457225
C           8.39815996686217    9.01633047017682   -0.36379648269417
C           8.78319014979366    9.67946211838859    0.79346663763258
C           9.15113616199476    9.03030231842470    1.97750143138238
F           8.84418085900346   11.02483507718155    0.80178570524746
F           9.53794335925383    9.82008954065621    2.99792425116140
N           8.57415685495408    5.61171505696924    0.88838083436760
S           8.06714992602736    5.24168652109016   -0.59051778148852
N           7.98530555864101    6.73444896143867   -1.17816271170095
C           8.09212894207073    9.67489075357799   -1.59857210543552
S           7.83663127033488   11.39598826498629   -1.70142747945905
C           7.58424469075295   11.29936639183025   -3.41421269539538
C           7.70884674786051   10.00046849649891   -3.86108149313574
C           7.98160877445529    9.09073659169268   -2.84413095446120
C           7.28704399984888   12.44859337575532   -4.19761240053746
S           7.33871235770801   12.33225524524988   -5.94272476114894
C           6.85325493070552   13.98772633555428   -6.08219899797544
C           6.65846443040486   14.59968491552533   -4.83757057485531
C           6.92568274755994   13.70272772163196   -3.77991851090975
C           6.64087604352067   14.69264779550251   -7.26352686376724
C           6.16902478701861   16.01096123223324   -7.23568394140601
C           5.95170206985222   16.66660770810796   -5.97984831360616
C           6.22258594938741   15.96353954341892   -4.77150240767576
S           6.90149034751156   14.11126332753608   -8.87294079155912
C           6.35340110019839   15.63774548354747   -9.52852895405385
C           5.99646680693554   16.51897963869478   -8.54233137992609
C           5.49788582541760   17.99542934620742   -5.93646390272436
C           5.33857729289424   18.59655252328641   -4.71489008272047
C           5.62120092498178   17.90142377873903   -3.51301459996632
C           6.05446927998293   16.60100771377024   -3.53094154963408
N           4.92077556841733   19.85761226901505   -4.36054337553107
C           4.94691838263566   19.98448869365928   -2.98509365707515
N           5.38234683763744   18.77513286321320   -2.47854526512027
O           4.64656057920960   20.96690471150288   -2.34649059944372
C           4.55813828975431   20.93469703916145   -5.24672770191169
C           5.78520613941943   21.59650061709582   -5.86694044984524
C           5.50098316773535   18.50688181330671   -1.06747235591268
C           4.31973174468484   17.69576010701490   -0.54318995109984
C           6.34156485898885   15.82588058793342  -10.93920488748141
C           6.98970910566430   15.05977019705787  -11.88469220642196
C           6.79977684952004   15.51372880176072  -13.18706965070231
C           5.98010653695294   16.62011879918823  -13.26787410485209
S           5.45285098663864   17.11534580733903  -11.68305946097551
C           5.56171988922438   17.29451655454505  -14.46149290482844
C           6.24404977171392   17.12230761661952  -15.69838668583856
C           5.80588201643754   17.77484919923669  -16.90655021001604
C           4.63935396601668   18.58856425638295  -16.93800018789503
C           4.00837527315720   18.73298544696349  -15.71029415321212
C           4.46099624999872   18.13694562703640  -14.52714959836297
F           2.89707300610777   19.48745769527834  -15.61604952186402
F           3.74719762173086   18.38970928832248  -13.41393928624007
N           7.33818824698626   16.39344478100625  -15.90189829284679
S           7.77194226186445   16.50860032661102  -17.44456349854711
N           6.59674646195273   17.48756792058846  -17.93682226242253
C           4.16086040883877   19.17916111219990  -18.15328617322406
S           2.52132684617096   19.74360258539629  -18.31076529996445
C           2.78966147300072   20.19344412026775  -19.96399934159402
C           4.09045784464696   19.93824769805765  -20.34259481001641
C           4.85427875061233   19.35735109410930  -19.33227744422919
C           1.73159201496438   20.72589649015568  -20.75094310884040
S           2.05155406889401   21.43361066934542  -22.31784017821305
C           0.36106123909308   21.74808654145099  -22.53891592419876
C          -0.41152498172521   21.31113891692981  -21.45419800826903
C           0.39587932133808   20.74530461390410  -20.44581968610910
C          -0.24115906804639   22.36252617101225  -23.63399496631284
C          -1.63230826327332   22.52714380469711  -23.68179231519617
C          -2.45502276475336   22.04732518553483  -22.61164401452843
C          -1.83751973975432   21.44569338696975  -21.48030034172396
S           0.55110869540376   23.01082839390853  -25.03271301557923
C          -0.98827298817131   23.52141549894059  -25.68864697659867
C          -2.02968681686589   23.18864397220263  -24.86188441813152
C          -3.85352847166580   22.16201181182927  -22.67652646616920
C          -4.60029638940799   21.68117612764813  -21.63257072778112
C          -3.98503852192631   21.08736018436615  -20.50273409058833
C          -2.62206467759042   20.97041454335578  -20.41628701966259
N          -5.95801408397899   21.62980502486766  -21.42370953089038
C          -6.21667379521633   21.03660832514868  -20.20314906526261
N          -4.99365971575464   20.71640275202171  -19.64530970592899
O          -7.30533374538109   20.83551220514315  -19.71597777426869
C          -6.99034342896206   22.13450962329932  -22.29372791795769
C          -7.12118318677440   23.65157872796787  -22.19832117945323
C          -4.85516247499369   20.01624649299077  -18.39332282242104
C          -4.57467281006754   18.53122750184036  -18.60550993203362
C          -1.05405031819506   24.20733849094605  -26.93132891763279
C          -0.01426354081694   24.55675310464932  -27.76759854994878
C          -0.42937319799746   25.24125089491290  -28.90645014350280
C          -1.79576791947982   25.43146834840451  -28.96938561359375
S          -2.57495564193523   24.73557606847181  -27.57425220155886
C          -2.53916026354774   26.09649782678794  -29.99678701422457
C          -1.91070599233711   26.69796035861501  -31.12513258948870
C          -2.66794926020017   27.36560150000266  -32.15589375513876
C          -4.08796165620735   27.46169084595023  -32.10837590856151
C          -4.65613800461559   26.86565760253062  -30.99236967861729
C          -3.92158250098149   26.21892863434696  -29.99027297536533
F          -5.99155259559715   26.88748517078807  -30.82539288335523
F          -4.63532277022045   25.69433289955501  -28.97558368534505
N          -0.60488845007252   26.73134403474724  -31.37520885527654
S          -0.34668352004573   27.51439869819235  -32.75344648380003
N          -1.87565270486893   27.85280505633508  -33.10757139838068
C          -4.84762542422501   28.11980915968891  -33.13411338239793
S          -6.58720389259840   28.23069644934071  -33.06911828041279
C          -6.62588613332731   29.08551541301703  -34.54907830860843
C          -5.38241633474679   29.28027930952849  -35.07053552884395
C          -4.36953178516133   28.73302329402305  -34.26988092746687
H          13.78182550143875    3.06073846131954   12.73860013304564
H          14.61734293511551    5.51046107069811   12.87566896146227
H          11.90552751640006    8.36746676703441    6.96313267491570
H          13.08340976961425    9.63942195765819    8.30333473642723
H          15.04994464468621    7.62159197553300   12.42132888999524
H          14.60800841292498   13.20824403415747    9.41137021602989
H          13.33663182476350   12.16459687791754    8.72349747845577
H          16.31536119494523   12.09661993832997    8.00371008611491
H          15.02266743985165   12.74027417338194    6.98595554150419
H          15.09613144798510   11.00815806655438    7.33282333483917
H          16.96481540956051   11.10750654959448   13.12091975576191
H          16.85271990668429    9.32845233466529   13.09222138330161
H          14.78553113327338   11.25274725535346   14.28248295730833
H          15.88730856747963   10.22464397196138   15.20411848138368
H          14.60398975487447    9.49651356348292   14.22832033181388
H           9.96254461939579    4.30346002650194    5.28213749850797
H           8.94384073151258    4.95386565545431    2.97905354064052
H           7.59444179979773    9.73209544207147   -4.89640153066859
H           8.10281915518625    8.03476877538628   -2.99379510669248
H           6.84426577536574   13.94301485562976   -2.73521932142181
H           5.63601969184723   17.50459885874811   -8.77535081721811
H           5.28373670292541   18.52565892349916   -6.84906900846457
H           6.26979304805111   16.07389487267827   -2.61678836541721
H           4.00768571713746   21.66030620971735   -4.64235833380348
H           3.89834595824970   20.54103841743637   -6.02585618525347
H           6.41563919827730   22.01620890032019   -5.08705459364575
H           5.47519412987695   22.39660630643616   -6.53328613780205
H           6.36741540372809   20.87309589997368   -6.43317445894722
H           5.53636579979959   19.47953399620370   -0.56989993185618
H           6.44139825655975   17.97681292551892   -0.88869246377394
H           3.39403196727356   18.24386605493352   -0.69969273252662
H           4.44112181378229   17.51278525454465    0.52079596702034
H           4.25008345525829   16.74048486164002   -1.05845150854234
H           7.58856156486730   14.20516571399349  -11.62413697578569
H           7.23253409907157   15.05651995908727  -14.05658223198452
H           4.45903610219589   20.15747350989299  -21.32902584135664
H           5.88311400334631   19.07003106669630  -19.44021181695780
H           0.02874553140382   20.34721448071280  -19.51721436800174
H          -3.04522989847788   23.43250378629986  -25.11660580477357
H          -4.32300931464840   22.60998862076998  -23.53589856944580
H          -2.15637572681323   20.51909626191626  -19.55657275723048
H          -7.92184604963403   21.65788508446997  -21.97753932067783
H          -6.76206301040831   21.83235067425073  -23.32041401642142
H          -7.38049592341956   23.93930738619087  -21.18256033323177
H          -7.90262903589073   23.99692723759550  -22.86933849816509
H          -6.18609058853376   24.13617987997436  -22.46962165517016
H          -5.80009424638607   20.14582971035111  -17.85951365251955
H          -4.04964086228652   20.48180145611537  -17.81762041152630
H          -5.39787279473787   18.07111384649654  -19.14646086536164
H          -4.46732307115098   18.03464088572301  -17.64527021243569
H          -3.66056029248685   18.39082761433585  -19.17804035554940
H           1.01096516709980   24.31791586487707  -27.54631150052610
H           0.23181065822338   25.59722896399710  -29.67363327217226
H          -7.56955879181708   29.39661701380878  -34.95177326332598
H          -5.19747505536767   29.79640088727501  -35.99540422613477
H          -3.32276482361328   28.77777336521927  -34.50277847255365
