212
 SCF done       -374.399959367176          0.001245706712
C          -1.60421694784928   13.54547986172811   13.47243250001825
S          -2.62978473625742   14.04546571884990   12.19773732597295
C          -2.53128415305040   12.46907112818914   11.45637403367175
C          -1.73159894722696   11.63609390488983   12.18698969265572
C          -1.19451252674309   12.24140994917870   13.35386323751438
C          -0.33652418816297   11.56146010242608   14.30875816515699
C          -3.25585321240344   12.17707527542665   10.26362957100215
S          -3.07493365295705   10.63266745684265    9.46645295294382
C          -4.22976168919792   11.09681534615527    8.26051375403419
C          -4.74465539660017   12.37869945737502    8.48707531106827
C          -4.15713086785402   12.97965778309782    9.61917636458407
C          -4.65791246831846   10.31793713146650    7.17956828834766
C          -5.57150095603935   10.81867441591996    6.24560388140368
C          -6.02842840041124   12.16921919457510    6.37946273180870
C          -5.71376356108764   12.90640144234671    7.57294017246081
S          -4.21925142432101    8.67356366844748    6.84735154925445
C          -5.32415372033863    8.63123682359916    5.49395152791270
C          -5.95916537354047    9.83341706773544    5.31995717083253
C          -6.83369316394689   12.87745619085303    5.50472659132874
S          -7.28773754663373   14.40668614755756    6.18755674793557
C          -6.37399922129306   14.12293243162387    7.63467656945269
C          -7.24811634920200   12.58998809686787    4.16136594996537
S          -6.13552100936828   11.95858266634898    2.97106052714385
C          -7.34978804789286   12.02657252667613    1.73473494705293
C          -8.51598646753846   12.53344615722071    2.22003552278754
C          -8.45818337453043   12.86610043423162    3.58726443399858
C          -7.03348280148619   11.58200524419279    0.34859685733811
C          -6.07814962249654   12.55324542996703   -0.34738195795618
C          -6.45603741033772   15.07900399682280    8.70093292090513
C          -6.62384256590433   14.85378422154175   10.04096980736466
C          -6.70330775699162   16.03898656582925   10.79625452653369
C          -6.61579155817967   17.17071877017922   10.04421331178800
S          -6.42786532220643   16.78922330123801    8.36457426631679
C          -6.60926277844598   18.58909730324017   10.49844045851261
C          -5.19938384233273   19.18024878957793   10.42999193017178
C           0.26648843511489   10.35030229811348   14.02522511345863
C           1.07404678893985    9.66928067094824   14.93735284407331
C           1.34376266296761   10.14114875519118   16.20924373368346
C           0.75315820078533   11.38881807697114   16.54469528701174
C          -0.07630866928522   12.09419803427017   15.59793317259023
N           0.86457816912289   12.05101177351697   17.69484569738988
S           0.01833139138290   13.41268048935902   17.60287367543282
N          -0.53340621703156   13.23959543866452   16.10394646190455
C           2.17162374797993    9.41696295750363   17.13578657033603
C           2.53657817125628    9.75813009476288   18.41297471409823
C           3.36313303556737    8.80159196272141   19.02929971494729
C           3.62682440281434    7.73784236506503   18.22549731932914
S           2.86857816528237    7.87877406075392   16.69381727920950
C          -9.88300170269298    1.72586665083211   -1.00399202526396
S         -11.33035854422008    1.06060442510345   -1.64208369225528
C         -12.29559628601894    2.18115515230744   -0.71916096781864
C         -11.49888994793178    3.02047836603834    0.00779973930845
C         -10.11332127643674    2.76870786973682   -0.14688281973214
C          -9.10368042382515    3.52994501966346    0.56877540314986
C         -13.72087974616266    2.17375167106492   -0.73716391905770
S         -14.57817403927513    3.26454006567763    0.32649953890411
C         -16.09259308182175    2.65059206938518   -0.23744139482929
C         -15.93898949388599    1.68248650694319   -1.23299266280087
C         -14.57638060560258    1.40659957370443   -1.47944433141029
C         -17.35240452432529    3.02540895873955    0.23796896464598
C         -18.52536273851985    2.41623427785466   -0.22085406698979
C         -18.40637179492514    1.37448219218962   -1.20023702014080
C         -17.12199664186574    1.09434969281120   -1.78921530442114
S         -17.66015023519945    4.23513562191692    1.43167064413518
C         -19.37950343671871    3.95891886747107    1.29945669209377
C         -19.66877979161199    2.98749692115232    0.37408749624374
C         -19.41609911605592    0.59425722167410   -1.73512547462309
S         -18.81615825169895   -0.40587430910390   -3.02225288046272
C         -17.19611540904330    0.18171158321721   -2.82584828930750
C         -20.79001497797135    0.43601361501876   -1.34823305193629
S         -21.24888415894597    0.20919532299670    0.32227911346432
C         -22.91695011069434    0.02242519257549   -0.11540213971461
C         -23.08180057995045    0.10001244681151   -1.46406604874753
C         -21.87899753833353    0.31512363244240   -2.16530058081622
C         -23.95360676227446   -0.13111385793212    0.94345329348217
C         -24.16051016967057    1.18093906322953    1.70428721465161
C         -16.18609463113434   -0.26047049047489   -3.74615917821663
C         -15.93885364618756   -1.53401287293987   -4.17428034608886
C         -14.88769900300681   -1.61248778154045   -5.10937496526800
C         -14.34978734105540   -0.40289960762516   -5.42459387728989
S         -15.14891041607361    0.87788854888565   -4.57101583850951
C         -13.19728856006180   -0.09914812596371   -6.31801338458074
C         -12.01391158957783    0.45407000043703   -5.52166502718464
C          -9.33613819370407    4.83331943292187    0.96487478859666
C          -8.44261362261971    5.55203161712912    1.75634432635169
C          -7.25716931270767    5.01741561586398    2.23399675751721
C          -6.94884967163979    3.70002891438724    1.80017798448328
C          -7.86415840365965    2.96913213611616    0.95732114824522
N          -5.85722224046813    2.98951435248498    2.07554410153914
S          -5.96664567605573    1.55722314971273    1.35290448635431
N          -7.40152265682368    1.75618895353383    0.65588230575425
C          -6.42782764401423    5.73943586670293    3.15453795102684
C          -5.34713611744893    5.29867637189551    3.88308413696280
C          -4.84399642295549    6.25369667519412    4.77072920310466
C          -5.52274863783427    7.45011128212944    4.72886486819811
S          -6.80794484148320    7.39272701030818    3.55989594811403
C         -20.76113229283627    9.78258399362217    9.44150747907140
S         -21.12712959940010   10.94308877946927   10.64426651124355
C         -22.58866560369158   11.39831244307738    9.80499682663852
C         -22.75405320528580   10.65405135003691    8.67125701560068
C         -21.70397929879913    9.72806918321073    8.44651484639620
C         -21.61256041335701    8.84227998935331    7.29825077075300
C         -23.41178845113836   12.43849198614622   10.32798885591496
S         -24.91573895020202   12.87825461345737    9.55770732020692
C         -25.17357715194540   14.12651840692922   10.73222880994526
C         -24.16052092443117   14.16573096366729   11.69259742062228
C         -23.15755141106501   13.21133064813711   11.42740429401986
C         -26.23327438799837   15.04561892562851   10.76143431854525
C         -26.26328945379460   16.09493001634468   11.68231097407702
C         -25.19901604569981   16.21042258967324   12.63387631969672
C         -24.22344162633180   15.15731277294739   12.72408991912732
S         -27.62360384884608   15.04590785817529    9.72776478875453
C         -28.25440558225861   16.42329117063095   10.55295238226520
C         -27.44839533782518   16.86543303029084   11.54650876766148
C         -25.00558895596316   17.19422626890885   13.59154577305725
S         -23.71021592281895   16.76903490604187   14.66541361438471
C         -23.38020020267193   15.29477987933991   13.81307807077478
C         -25.62686086995344   18.47657294842166   13.74553365473535
S         -25.91910715091502   19.13484411018968   15.33400871716260
C         -26.54393362521822   20.60514438707916   14.66251619413392
C         -26.50950497221653   20.57368714212926   13.30145269483784
C         -25.98805215889151   19.37560113886660   12.77767020410820
C         -26.99223545694303   21.71159548449518   15.55348626549867
C         -25.80310418005010   22.38979659739067   16.23696806354457
C         -22.39269878758788   14.40650377654746   14.35553826967766
C         -21.18847427929538   14.73794377996753   14.91243817056375
C         -20.48274765950968   13.62812529052959   15.41609310988279
C         -21.15218093347835   12.45112756144927   15.27795650714673
S         -22.69171390807406   12.69308136210645   14.51814323482776
C         -20.70096947906421   11.07544308296799   15.62776855367102
C         -20.33354452587751   10.28411451758760   14.37020577364556
C         -20.39788179475644    8.37099983282598    6.83653854454316
C         -20.28529636358941    7.51571398936404    5.74248919438021
C         -21.37765178399177    7.05292385626098    5.02633661918939
C         -22.64792717178609    7.51450157591718    5.46263465279070
C         -22.75929984619636    8.41401554123122    6.58582455563549
N         -23.83837330062223    7.22125513974779    4.94324359801463
S         -24.97848563291355    7.99189181431457    5.77740260190094
N         -24.02857847158984    8.73411790354775    6.83701126267146
C         -21.22119028070082    6.15928406271036    3.91552223767288
C         -22.17787495790083    5.51452674350577    3.16423498027990
C         -21.64709933981403    4.68764427394661    2.17061484056322
C         -20.26920615146544    4.69048390870858    2.13626136257617
S         -19.62491266256902    5.73675390602662    3.36244936869379
H          -1.35218918189046   14.23460973816165   14.25199331320590
H          -1.56703038301637   10.61390373201381   11.89801421888149
H          -4.36929985666389   13.97791305418753    9.95356889468898
H          -6.70673926043066    9.97116037838108    4.56181794081396
H          -9.39803343403736   12.65961797189899    1.61737654367340
H          -9.28477709324600   13.27291452456689    4.14264726077952
H          -7.96480272955942   11.51172115362365   -0.21729952844950
H          -6.57545197906358   10.58989779031997    0.37887789437123
H          -6.52328780309788   13.54380641610884   -0.40867773740490
H          -5.85669020198946   12.20787238049928   -1.35409892269071
H          -5.14613662319970   12.62714205457258    0.20858052411915
H          -6.71224269486926   13.86825829239482   10.46211131655726
H          -6.82965424903768   16.05050222847755   11.86438828161044
H          -6.97751196740867   18.63191749557439   11.52544996029316
H          -7.27717787111885   19.18165067727860    9.86844995798297
H          -4.52180701038643   18.61534813985010   11.06658546107897
H          -5.20729094973537   20.21591309327260   10.75973960425202
H          -4.82590604645259   19.14234453241933    9.40912715957224
H           0.12229867426781    9.90368097271068   13.05403147889452
H           1.50851556973879    8.72748303318493   14.63477589092435
H           2.21376825288929   10.67048043835277   18.87904231968504
H           3.74779035449892    8.90067794929609   20.02877713785799
H           4.22281386220913    6.87216221098407   18.43656832186251
H          -8.93629422014743    1.32020331172843   -1.29695527142437
H         -11.90410976951915    3.77117111935028    0.66244267366849
H         -14.21555795171340    0.65180163053855   -2.15209645160337
H         -20.67671606234788    2.71574393645249    0.12875135389640
H         -24.03919005493291    0.00794568438221   -1.94574506443083
H         -21.81445563001551    0.40602220499762   -3.23513465779552
H         -23.64998604497837   -0.90873634345575    1.64855417534754
H         -24.89129123037231   -0.43860633959072    0.47590494744237
H         -23.23616556710317    1.48350333570152    2.19220912077517
H         -24.92966267600465    1.06053232762979    2.46276776324566
H         -24.46800888747178    1.96958803974238    1.02066997313836
H         -16.47741155114478   -2.38702071755296   -3.80134032626100
H         -14.53899828160125   -2.53896621485420   -5.53000457047254
H         -13.49601131322654    0.63466436654234   -7.07184193097876
H         -12.90287467858301   -1.01635808776699   -6.83275803861651
H         -12.29299437254153    1.38265398648473   -5.02937846593698
H         -11.17291901369579    0.64907017790487   -6.18224668730489
H         -11.70175977054095   -0.25623669267331   -4.75947307124680
H         -10.24921387487152    5.31985633226174    0.65794618042189
H          -8.70283492527955    6.56157658819526    2.04022827197280
H          -4.95263176384913    4.30537090600745    3.77324098498440
H          -4.01174752927907    6.08601220311212    5.43166797961402
H         -19.87979111915739    9.18339068601876    9.55413527449707
H         -23.59365385648595   10.76533866286871    8.01036763390112
H         -22.25069903319985   13.10801575978699   11.99277311049924
H         -29.20227941811447   16.82014944069814   10.24762752146478
H         -27.69878625334176   17.69487258900688   12.18066603920141
H         -26.84526650237886   21.38982821194221   12.68605851049879
H         -25.85336489088611   19.18979528185663   11.72705046328512
H         -27.66707266305301   21.31855550621179   16.31811017411677
H         -27.54049931183734   22.44305729687209   14.95590924758641
H         -25.26258627583171   21.67218529249456   16.85002788265172
H         -26.14620124560458   23.20258985364745   16.87210983257688
H         -25.11925283459786   22.79315994955570   15.49338569692054
H         -20.81616096723080   15.74695473790633   14.93161702249596
H         -19.50785082675936   13.70080650527036   15.86476896495084
H         -21.49637686977939   10.54973761944718   16.16163270814709
H         -19.83315709850812   11.14583612877552   16.28694212667937
H         -21.19446248446165   10.20341306359703   13.71055549722771
H         -20.00336529900277    9.28335583575683   14.63683941345698
H         -19.53355739955240   10.78308082621383   13.82809710767916
H         -19.49220939501595    8.68823923363166    7.33026005116081
H         -19.29872364763161    7.19576673800709    5.43939293572908
H         -23.22870361650831    5.64519703244287    3.34672039194752
H         -22.24771400309830    4.10577438501383    1.49500785445334
