176
 SCF done       -295.689100369989          0.000372707533
C           5.36083142630304    6.33137896142902   -8.65699841133532
C           4.20398210469471    7.14535146445115   -8.67839392936835
C           3.59044495237652    7.60378820243682   -9.83054006866350
C           2.45309402495967    8.38171441093582   -9.61309829280926
C           2.17056824055460    8.53468760071454   -8.25831926722982
S           3.33942899917534    7.70260878082754   -7.27103663077808
C           1.62059933176268    8.98443208752512  -10.70080065555357
C           2.11423917558861    8.66387511798153  -12.10576793314358
C           1.11637085763980    9.22886187073645   -7.61109825772568
S          -0.11452857809427   10.11181903005114   -8.47399147907021
C          -0.89987708566106   10.56837399807264   -6.98913894990895
C          -0.22586854879261   10.05476919680417   -5.90104260187952
C           0.89730406344248    9.31016749143993   -6.24827262951484
C          -2.07427583269119   11.36181500482156   -7.01142697066811
C          -2.72127145020472   11.88710397857337   -8.11076917155002
C          -3.85544097661500   12.62249981068157   -7.78499525983407
C          -4.11366724668947   12.68197744542164   -6.42770286337647
S          -2.90140862418327   11.79422719187554   -5.54214594633861
C           8.99753477891454    3.74674978300929  -10.36094601213736
S           9.58759470416524    3.25227743430275   -8.79059495580942
C          10.85642756832396    2.36921646328790   -9.51983958826831
C          10.85354030077307    2.43816648628533  -10.88599214991932
C           9.78944637484742    3.22292013824172  -11.36208887736353
C          11.82923195469851    1.73368794650369  -11.77678369890924
C          11.23034216767603    0.43703633604373  -12.32411350163009
C           6.05447636646639    5.85555206661260   -9.76865243013268
C           7.14416186426787    5.06527537079677   -9.30858340457376
C           7.12099596110976    5.05872632009184   -7.87291463276982
N           6.00602430886000    5.85382887770559   -7.53926499321073
C           6.09216301443466    5.85313139534615  -11.20444143806792
N           7.21006051722861    5.05614395222211  -11.52967933273162
C           7.84600923454049    4.57969385786163  -10.40398457438056
C           5.66193769854304    6.08526847792918   -6.16499978427553
C           7.54953842995510    4.83319562781671  -12.90679414667292
O           5.38793840279270    6.37326461489409  -12.05311748442250
O           7.83694404372619    4.53154519366415   -7.04208809616900
C         -11.06485654237070   17.17279900760733   -3.92551952877941
C         -12.22388094875231   17.97723951549584   -4.01330109938048
C         -12.72656924131255   18.49506918748279   -5.19418527958654
C         -13.88446513025693   19.25769099789432   -5.04882187441266
C         -14.30108502528095   19.33626525704659   -3.72208003010453
S         -13.22812097628749   18.45498819112545   -2.66974322893348
C         -14.60643706311361   19.91819184446408   -6.18090163101259
C         -13.96456559923759   19.68480055894750   -7.54252337196254
C         -15.41909586550291   19.99442183913036   -3.14995930318096
S         -16.55289307792715   20.92954920518934   -4.08837831002612
C         -17.49003022081306   21.30992835631248   -2.67233967665659
C         -16.93563388938045   20.73280655468733   -1.54880739314385
C         -15.78198302621191   20.00175418524723   -1.81552276706508
C         -18.65046870569449   22.11713993474925   -2.77667275858402
C         -19.17162472453054   22.70731249178819   -3.90957321712360
C         -20.32522448278865   23.44476950509654   -3.66758579242878
C         -20.72524619366779   23.44027521557695   -2.34385827924321
S         -19.62476614321827   22.48771238672210   -1.38271775255658
C          -7.25686884941597   14.73118904900298   -5.46895403739599
S          -6.30634963616196   14.22329312868743   -6.83898895362740
C          -5.19721433244370   13.35889219845661   -5.81240725675242
C          -5.56013196635947   13.46733902101426   -4.47250043389039
C          -6.71186088871773   14.23499705435170   -4.29729427260901
C          -4.78947316248220   12.82561632490812   -3.36177633177236
C          -5.37660776540111   13.07562446109890   -1.97871957621831
C         -10.26865057625225   16.75524297280723   -4.99201496561493
C          -9.20662532802086   15.96118176947401   -4.47780975160538
C          -9.35600577445627   15.89290152338603   -3.04916105986332
N         -10.51004634282046   16.65213459916198   -2.77937288207215
C         -10.12197155784255   16.82029276222420   -6.42058946248125
N          -8.97376655843179   16.05527054371532   -6.69189840176853
C          -8.41561925206473   15.53711710315616   -5.54533652202579
C         -10.97830536790005   16.81663836849185   -1.43227123972948
C          -8.51604441323152   15.88950136287285   -8.04242331662289
O         -10.76757787438625   17.37182941152070   -7.29582418666817
O          -8.70769433092121   15.34418449904321   -2.17493868070457
C         -27.80505002801479   27.96879890454293   -0.31954728146262
C         -28.93149720869641   28.80922256178265   -0.47403652180468
C         -29.30220050230061   29.41258549288513   -1.66267925821720
C         -30.45348735930221   30.19642281118134   -1.58267620569955
C         -30.99798190825556   30.20399687014163   -0.30186696646607
S         -30.05468971919943   29.23102316699732    0.79171902373480
C         -31.04486969014473   30.94858037078841   -2.73341064224526
C         -30.24970106210034   30.82248095744508   -4.02660879244673
C         -32.15312836006735   30.85537381821548    0.20480329762347
S         -33.20513822944486   31.83900299611216   -0.77941231746443
C         -34.24460678802384   32.17145400600045    0.57399734449151
C         -33.78324964401645   31.54782107547837    1.71106382058771
C         -32.61696936481474   30.81339324134214    1.50491077882278
C         -35.39732356983345   32.99310314700893    0.42137385551072
C         -35.85832463930457   33.61061676571818   -0.71439279679840
C         -37.03566839125148   34.34918465489401   -0.50161136992469
C         -37.46567067921179   34.29352862388217    0.78667155692247
S         -36.43985350545598   33.33366856488402    1.77569720105482
C         -23.90829869129091   25.51945553036130   -1.60519156637784
S         -22.82387025508591   25.06906695307842   -2.89335696092804
C         -21.85640671411171   24.10833008824159   -1.81003079588560
C         -22.36389623805957   24.14340048852105   -0.51407520102418
C         -23.50915052727419   24.93415374552805   -0.41618650647359
C         -21.73934119104286   23.40783134691420    0.62973260021058
C         -22.48971218425466   23.56288065538268    1.94616158768918
C         -26.90899984753567   27.59563310364031   -1.32099174220800
C         -25.92494140414522   26.74169130958331   -0.74997026046949
C         -26.22739102214469   26.58977721042005    0.64753422491474
N         -27.38668372567239   27.36318807213270    0.84282957423746
C         -26.60871060343572   27.74539671267427   -2.71868843556353
N         -25.45349002197961   26.96737790663378   -2.91585039665340
C         -25.03324751356197   26.36307304401185   -1.75285794822158
C         -27.99213763882717   27.45458412809100    2.14131759302593
C         -24.85417204721297   26.87521291976487   -4.21706591455303
O         -27.14534955432890   28.36754303312237   -3.61963812607415
O         -25.68799986647252   25.97027616583789    1.54825194539560
H           3.97954954655250    7.36201040168620  -10.80251185273688
H           1.59716593973061   10.07089930058923  -10.56398043805327
H           0.59001327132793    8.63040444675778  -10.59050889333130
H           3.12241386072617    9.03954443767033  -12.25833933850733
H           1.45902916376466    9.13076683532976  -12.83752625385987
H           2.11597641772939    7.59135323004071  -12.28086646524318
H          -0.55083090865759   10.22337071217678   -4.88959755632591
H           1.54528259724536    8.83329916626034   -5.53406601257913
H          -2.36787509128934   11.73305879337641   -9.11495455650925
H          -4.48562588250577   13.10622952589671   -8.51036163242929
H          11.55511167908892    1.83947770042438   -8.90183473204865
H           9.63197772640195    3.39102017406645  -12.40990615117529
H          12.73609582439888    1.50561547746330  -11.21457846531328
H          12.09780996803609    2.38751959558982  -12.60945100347823
H          10.97151530562687   -0.23295068670631  -11.50758554904741
H          11.94372160031285   -0.06520657904502  -12.97310339746681
H          10.32847596028743    0.64493875903397  -12.89528196477165
H           6.40717582618394    5.55646084008437   -5.56878031089859
H           4.66981140862799    5.69321054482217   -5.93273086205981
H           5.69371674206103    7.14929478732592   -5.92266160831620
H           6.79983918903730    5.36467958642176  -13.49588627545851
H           7.51100813101758    3.77101196465741  -13.15541021800115
H           8.53648115933764    5.23708713566808  -13.14051587851473
H         -12.24354056006604   18.30656868938341   -6.13520673045560
H         -14.65678953217686   20.99459572079799   -5.98474583792848
H         -15.63855727491732   19.55221696759103   -6.20012343791345
H         -12.95105160738514   20.07610292129672   -7.56602857824797
H         -14.54584476283698   20.18970145556052   -8.31058403864457
H         -13.92991561513804   18.62474377275720   -7.77887039246140
H         -17.36616203326967   20.84792702326327   -0.56980869336433
H         -15.21323682948314   19.48267082592977   -1.06417312088125
H         -18.71553520730980   22.59813085129450   -4.87761432004832
H         -20.86911465728501   23.97518960977301   -4.42923214070710
H          -7.16214909825741   14.44134779087831   -3.34355970713596
H          -3.75910604176037   13.19605282400384   -3.39075717688720
H          -4.74139669173113   11.74699825960976   -3.54596534800845
H          -5.40018764101183   14.13859424967382   -1.75406653621246
H          -4.76623854785891   12.57904029973711   -1.22802143118406
H          -6.38901771232158   12.68653810553065   -1.91086290323364
H         -10.27936563418152   16.27376829919319   -0.79425778351815
H         -11.97944051544344   16.39948075298324   -1.30736954379261
H         -10.98908363637604   17.86924747589774   -1.14312813699513
H          -9.21218991830461   16.44527739665999   -8.67259592220459
H          -8.52335793156950   14.83841035269733   -8.33713126612249
H          -7.51036220177811   16.29335968160197   -8.17307385167072
H         -28.73103488032734   29.26986071891915   -2.56152972770968
H         -31.12246880216896   32.00584223731222   -2.45841405550332
H         -32.06641783589806   30.59011734600552   -2.89930724848669
H         -29.23900778650124   31.20071433447722   -3.89801655164077
H         -30.73526711508622   31.39870818654349   -4.81078289464540
H         -30.19122371945937   29.78610314637892   -4.34792508570711
H         -34.28580776774895   31.62905734042349    2.65858232335512
H         -32.11280020022150   30.25957443218053    2.27727163483679
H         -35.35906782941520   33.52814210975562   -1.66352295264458
H         -37.54230243876610   34.89947294845239   -1.27402580987350
H         -38.32674494417924   34.75831249247530    1.22371140664988
H         -24.05729645747504   25.09429202127054    0.49416308285585
H         -20.71045879574708   23.76225629544569    0.75453632254707
H         -21.67705748498986   22.34540263250843    0.37090578274231
H         -22.52775411350431   24.60523339498868    2.25095448043665
H         -21.98343328331430   22.99559401110849    2.72371063996553
H         -23.50754601750037   23.19242716565709    1.85773450260727
H         -27.37765983031469   26.85095455563739    2.81095270674543
H         -29.01010426099821   27.06032487573325    2.13219274782679
H         -28.00943264862235   28.48609270803284    2.49816334905309
H         -25.46365438972359   27.49136685435706   -4.87999709327511
H         -24.85329073828393   25.84601386597009   -4.58112621017414
H         -23.83104643919197   27.25570403223879   -4.21036238788404
