164
 SCF done       -285.590693885960          0.000950831481
C         -10.80927336114803    2.71010525786550    9.41152298494134
C          -9.83672728704007    3.74447131239988    9.36701350323756
S         -11.16050424720615    1.73534991348884    8.00835995589842
C         -12.32479300577911    0.83976235796259    8.89301240732745
C         -12.44593794697873    1.25270149486251   10.18869702259282
C         -11.57717264999766    2.32276310845763   10.48319003733348
C         -13.35341486543622    0.62552248834679   11.19890401172044
C         -12.55527046637651   -0.22384505552694   12.18889947855473
S          -8.94523909397846    4.07220181835142    7.88892333573950
C          -8.02041267979078    5.37417382583785    8.62023536358706
C          -8.41080579695361    5.51496724316273    9.92931470895374
C          -9.42011593688967    4.60995638117821   10.35116868010876
C          -8.05137526736993    6.37437013414074   11.05196226885045
N          -8.86121296312331    5.94380702105036   12.09910857572699
C          -9.70636890211127    4.89217539823459   11.76323758288341
C          -8.82666011460499    6.53405013182502   13.41339143201298
O          -7.24570247073428    7.27378397689512   11.12682251236181
O         -10.48181395612139    4.37701646990788   12.53538798157488
C          -7.04205080024023    6.08379193440764    7.88551773031474
C          -6.68534807604881    5.87973025588098    6.56798038023233
C          -5.66760885329583    6.72261132603288    6.11406415733375
C          -5.23535581948462    7.58505549553151    7.11348742084641
S          -6.10604697804983    7.35947702856117    8.60212979788352
C          -5.14582378841449    6.73269323656079    4.70852363683930
C          -6.16402255121150    6.23852457081187    3.68510105418536
C          -4.20633228941802    8.57331082776555    7.05908265306962
S          -4.28405690462347    9.96333038202699    8.10783531528704
C          -2.77808089278850   10.57277760694821    7.48545085909132
C          -2.26316516818346    9.72440822290421    6.53062879469851
C          -3.06467545874660    8.60708268998786    6.28874523634246
C          -2.22835682512651   11.79609165513852    7.95355142697658
C          -2.78266105648147   12.70879483839748    8.82422674748866
C          -1.97049858331034   13.81667706964697    9.05453899721845
C          -0.76759529749688   13.77874257493067    8.37663252820454
S          -0.65772309326684   12.32346516557909    7.42291724090309
C           1.53819596602754   16.84077232408709    8.89949576006400
C           1.97690032947842   18.11558971752744    9.32926093057223
S          -0.05604286095731   16.24945913072725    9.26955883981508
C           0.25696010201489   14.76174661025869    8.41635650214316
C           1.53834661361084   14.74715920868830    7.87569997778140
C           2.24752107123058   15.91783784804953    8.16006211426221
C           2.08629396129511   13.59907942952992    7.08705748458498
C           3.53457500985744   13.78365664465767    6.65212683615931
S           0.88607836136112   19.20580932835347   10.17468376813250
C           2.10372514019181   20.46391189535206   10.32293470182344
C           3.27044289595227   20.02353268977633    9.74591204480968
C           3.20644776429932   18.72131830638257    9.18705963646705
C           4.61496091127378   20.55405206735706    9.54686731088445
N           5.29731557032713   19.54343778953798    8.87716424460850
C           4.52408737424515   18.41663466899216    8.61941577040759
C           6.67911952357863   19.65467308206026    8.48334327842789
O           5.09561806752748   21.61812003026377    9.86485901170932
O           4.93354990700797   17.43733922851857    8.03790531659905
C           1.81533425590594   21.70322458436861   10.93844259819978
C           0.60479179380511   22.11397038795891   11.46092064014262
C           0.61782573770455   23.40760677580851   11.98742590015108
C           1.87050654695635   23.99781051159687   11.86226584803533
S           3.02206617174140   22.94162114201202   11.09801172276755
C          -0.55887324275329   24.06621739966120   12.64296350343588
C          -1.63090109055275   23.08393857609546   13.10364484497035
C           2.30762302731909   25.29540070986970   12.26251520398675
S           4.00937430563520   25.56920424859565   12.52412390092583
C           3.73001191320985   27.24386089524306   12.90193995750369
C           2.38904723358718   27.54700498023985   12.81890845541656
C           1.59239459358373   26.45645292943259   12.46427416912095
C           4.80993820210869   28.10255912529989   13.23729449868402
C           6.14120416521405   27.77591979170204   13.38043197200381
C           6.94323092703115   28.86183884912808   13.71973130972725
C           6.25172044010740   30.05196910089304   13.83854896017869
S           4.55540720789851   29.79942611853735   13.52480341951900
C           8.40932446048217   33.10844011429957   14.81568980337198
C           9.54384370130397   33.86084759620282   15.20211355130414
S           8.50131465606798   31.38797471260485   14.57611965898555
C           6.80734269807084   31.31609368118625   14.17004306160417
C           6.21878759687952   32.57480946761547   14.22631396879229
C           7.13102414358908   33.57183124117734   14.58584566950474
C           4.77214994099551   32.81915552377652   13.92960200485977
C           4.36890629603806   34.28700761927853   13.98822064292558
S          11.07898346810197   33.06614997784652   15.52343724403090
C          11.88814409450185   34.57530569698242   15.91714191189995
C          10.98986974259126   35.60737800911391   15.79124069569455
C           9.68389445371102   35.21737442576310   15.39696699111508
C          11.01571019518408   37.05638388906398   15.96010255670701
N           9.72098776634837   37.46926140303587   15.65877216470838
C           8.86344010944918   36.42996925963204   15.31537371250762
C           9.30408340178083   38.84802712448371   15.70021007525329
O          11.91775961597819   37.79450244296702   16.28470193292837
O           7.69806695656446   36.58444972568859   15.02700421370938
C          13.24956527323464   34.59979156405670   16.29585956840419
C          14.09457223267823   33.51524372196953   16.42237523771227
C          15.39326816418486   33.84348769723267   16.81728483337130
C          15.54159904688659   35.21422284871319   17.00002206131919
S          14.07057373489411   36.08323185637602   16.67256974436594
C          16.50130023922584   32.84655247027128   16.98115231563184
C          16.23666034852975   31.51678342817383   16.28272752240253
C          16.69779726079161   35.95397518435405   17.39084341278825
S          16.78884387302247   37.65451172906270   17.00991143767070
C          18.34716029368501   37.79001890229721   17.76719923284303
C          18.74772582374983   36.57960310923642   18.28196210497670
C          17.82535558201817   35.55072709176279   18.07154071643579
C          19.04426115984268   39.03266426354369   17.79762131015673
C          18.64841725264312   40.24398176131622   17.28969030637361
C          19.59435336952119   41.26434115943805   17.49493836484567
C          20.70114749272739   40.83071810432985   18.15386539902485
S          20.61475465757733   39.15897847213903   18.54225233834714
H         -12.86030363818717    0.05111438626059    8.40153317392864
H         -11.51360141505455    2.79982894631698   11.44455169653259
H         -14.09268008566561    0.00311078183221   10.69149537010540
H         -13.87950344282980    1.41240351443287   11.74323738993235
H         -12.02797709424049   -1.01937323943624   11.66674750069543
H         -13.21962550327556   -0.67184690659892   12.92374024134766
H         -11.82453648482971    0.39006984715824   12.70941045404218
H          -9.80718975418087    6.93796899469714   13.66890931325736
H          -8.08606596591541    7.33169831718704   13.39655710815737
H          -8.55150933747117    5.78276767273657   14.15492755366437
H          -7.16827007709112    5.13118658106974    5.96583195849280
H          -4.25076703231892    6.10502218745255    4.65173935233314
H          -4.84908393431897    7.75368338650054    4.45675868433952
H          -6.36526161612919    5.17807632931354    3.81081754495594
H          -5.77869759257496    6.39183137529989    2.67985070924976
H          -7.09857910900267    6.78565145442751    3.78295659485917
H          -1.33119941669205    9.91722544484815    6.02893520876954
H          -2.79394138071535    7.82743379072268    5.60190370067173
H          -3.75075364956170   12.56515654124665    9.27020052419365
H          -2.23789500935654   14.63327986051739    9.70184061261951
H           3.25654016537071   16.10821823518173    7.84519470276417
H           1.45923895708784   13.45088190099989    6.20153990709544
H           2.00253812620139   12.68816897438015    7.68882192395261
H           3.63753334068071   14.64915018963574    6.00302008519049
H           3.86542213484570   12.90397694099945    6.10519456818735
H           4.18387770706383   13.91682647079616    7.51334717915369
H           7.27897418542395   18.90124263738641    8.99626764928362
H           7.02027124436327   20.65158967159294    8.75692501864394
H           6.77346417858738   19.50646437867355    7.40693151558309
H          -0.25601523851960   21.46989596949867   11.45048403894376
H          -1.00729847292558   24.77572478625276   11.93990279613003
H          -0.19988434133840   24.63789234775180   13.50293314764354
H          -2.10825756802796   22.59947464992055   12.25578632765077
H          -2.39716016462505   23.61339963827393   13.66501937036499
H          -1.19952767443615   22.32054385460821   13.74664717398408
H           2.00719913664540   28.53475367472827   13.00887488083665
H           0.53095798344948   26.53001721814174   12.32263760093832
H           6.50620714339975   26.77391981396586   13.24077047985201
H           8.00593909790963   28.79871537509817   13.87425883264370
H           6.88713834482925   34.61353773080086   14.68086137354577
H           4.16712462441569   32.24838772318905   14.64210190528491
H           4.54575333354881   32.42151841538860   12.93485677770808
H           4.53317543360831   34.69548486312004   14.98179775981078
H           3.31286326855362   34.38509585320338   13.74776788716416
H           4.93981414213472   34.87382769752930   13.27341403649947
H           8.98391847804512   39.17399395086675   14.70937609333640
H          10.15574006455460   39.44007204052366   16.03057458242030
H           8.47165928615348   38.96594572895729   16.39514619442242
H          13.75443167058349   32.51510420294472   16.22248621955545
H          16.65776711463533   32.66006776697958   18.04847564411464
H          17.42116313108088   33.28451305106677   16.58472623331759
H          15.40647747712407   30.98943449386399   16.74537800301652
H          17.11876659760627   30.88437931151748   16.35269969743740
H          16.01000183000241   31.67496441501098   15.23118326366689
H          19.68278524611041   36.45134872058901   18.79836617229236
H          17.97050674834102   34.55446472017987   18.44305727334945
H          17.70669595832669   40.38299979136815   16.78920056824367
H          19.45844671201818   42.27904150145392   17.16602074211672
H          21.57012858471523   41.38899246639798   18.43975566062356
