254
 SCF done       -431.672828680269          0.000318469656
C           1.03238757285083    5.84576077596473   -4.02947139692918
C           0.55541769150443    5.47455678495780   -5.29949603175687
C           1.39265994362899    4.77204104930106   -6.19722614195003
C           2.70067711219588    4.40043524888104   -5.89825198465926
C           3.18225420601406    4.78563292353632   -4.63177984601931
C           2.34449092022533    5.49275738460690   -3.73448852302501
C          -0.73018454551776    5.72127907553887   -5.86569739864009
C          -0.86689679230320    5.21136676252865   -7.10566910050264
S           0.55267608472201    4.41016971019647   -7.68286072206582
C           4.46645311321770    4.56760022474184   -4.08125745655949
C           4.61560884407191    5.03562808207438   -2.80820341138779
S           3.15625400119263    5.81222082031027   -2.22341717333420
C           0.21979780377677    6.55355955293436   -3.05814926811777
C           3.50977179842785    3.65120980031916   -6.83738208759195
C           0.59475896558633    7.59350104604611   -2.25606521477984
C          -0.42895965395375    8.03054213528837   -1.39191940491749
C          -1.58216037106603    7.31963042375149   -1.51343444368174
S          -1.42665595511770    6.09167299378775   -2.72711108645939
C           3.58016238702170    3.79642893159408   -8.19515766382649
C           4.46995541173071    2.89348822275360   -8.80897093389535
C           5.06839444954800    2.04093108277889   -7.93297227563689
S           4.54281226867480    2.34883140765939   -6.31285110050113
C          -2.87213753580443    7.50908026379600   -0.79267793901335
C          -3.94464478373742    8.09343963262330   -1.71398509819775
C           6.10419647749135    1.00348550912232   -8.19737330157123
C           7.48746386338759    1.49143528805563   -7.75884804739570
C           5.79187146439667    4.93526535073022   -2.01910533361551
C           5.95347646356307    5.37385222923634   -0.71956329153706
C           7.21444254501861    5.14742242312520   -0.18518876140320
C           8.13911093228968    4.52159469618094   -1.01476115103755
Se          7.35325742282434    4.14251440251844   -2.68663677935665
C           9.47064516986328    4.25808798349437   -0.61924109706205
S           9.92561712743717    4.70696461389102    1.01226961446018
C          11.58783678639464    4.19844524851935    0.79703401289016
C          11.76403804877461    3.70353665723958   -0.49169419750075
C          10.56879285847481    3.71104660641238   -1.27999216722153
C          13.02750078248281    3.23452978382418   -1.00696293661328
C          12.97740091771318    2.66320349934846   -2.34145678258437
C          11.77411098580593    2.62488286007424   -3.11489465286258
C          10.52246901455509    3.18200419287354   -2.62179637486478
C          14.05153420679099    2.09378969838898   -2.98372011326686
S          13.58218887152532    1.49220558976984   -4.53476704607393
C          11.94363333518688    2.00957707685880   -4.33093252395048
C          12.45807523431864    4.33009059205508    1.90432493447471
C          12.01662394207952    4.71879498949272    3.16575239879510
C          12.97991748245798    4.81056981936353    4.16011766482062
Se         14.32278666415527    4.04703357600348    1.93076058306718
O          14.08629995017020    3.31010524290340   -0.37072725731934
O           9.49462332077506    3.18455735818877   -3.31032358841329
C          15.44427440692353    1.97280964572363   -2.48372675629337
C          16.35745540868650    1.19653504368735   -3.42105587160813
C          10.95511452404741    1.80053636630202   -5.42008608405795
C          10.80318105411693    3.06820035949617   -6.26564162002788
C          14.26558824258423    4.52407283456609    3.73858888003815
C          17.38451212117172    4.54156852168019    7.67240920356113
C          16.91283859382812    4.55875391309109    6.34345090303553
C          17.83023727476970    4.54649457465476    5.26259285342772
C          19.21045168636031    4.54214836678533    5.42523111441959
C          19.67990165769666    4.55271919489686    6.75470885642792
C          18.76494842915594    4.54149820509054    7.83715551573422
C          15.57007073835561    4.58496421621097    5.89458453681056
C          15.44354273436783    4.54225569029226    4.53577740997759
S          16.99729529861399    4.49760770927788    3.73238120075752
C          21.01805004558812    4.56392160990670    7.20457414681191
C          21.15372145114126    4.50667662338335    8.56196934565547
S          19.59849484249905    4.47785351347768    9.36994276914925
C          16.49903677730714    4.50084052943554    8.81903186111144
C          20.10641430449121    4.51853410273619    4.28731514865351
C          16.63572013155699    5.16011632134789   10.00821771060083
C          15.61871050016510    4.85953935712138   10.93559581011972
C          14.71060442575721    3.95840605696188   10.47292580687218
S          15.09178066528209    3.47289183004917    8.85350401151156
C          19.97032906127789    5.17378369090206    3.09467414890385
C          21.03011922836359    4.93227494599329    2.19907365219172
C          21.97065438447780    4.07886626426457    2.68835806796585
S          21.55992948995048    3.55637409986688    4.28647599151089
C          13.49635748487620    3.42731810053701   11.15349548569310
C          12.21751259312652    3.99996582904215   10.53901459417703
C          23.25395660542085    3.64458133760189    2.06892831154135
C          24.44053853783157    4.36896017918867    2.71027828787942
C          22.38669004647822    4.46466658850492    9.26321049815014
C          22.56457068251822    4.32541695648405   10.62574068383903
C          23.89075290706511    4.28954865451250   11.03449858267053
C          24.85370321505515    4.40740044700783   10.03726683652727
Se         24.02182773870063    4.57948803214767    8.35425194183393
C          26.24213422147123    4.40084434137333   10.30325602115255
S          26.73985310908262    4.13870821540697   11.96258315773919
C          28.44265357330757    4.30075079691129   11.58399890119996
C          28.59846182726616    4.55930221409896   10.22540313430460
C          27.36517891493187    4.58445580769984    9.49863357247190
C          29.87398137260182    4.79484920330740    9.59376987216450
C          29.82919866262781    4.95603633860486    8.15087975955714
C          28.60330449312371    4.93045916792526    7.41341922692106
C          27.31363193261171    4.76221894155723    8.06758757752981
C          30.93640333440192    5.12604338638022    7.35370598541759
S          30.47594729392218    5.24083351239603    5.69163079247357
C          28.79437440175457    5.06430249729369    6.05983513266415
C          29.36553189281312    4.11908011786576   12.64023649981606
C          28.97893210066213    3.70201242831161   13.91060980015588
C          29.99000536287114    3.54418001304549   14.84687191969152
Se         31.23411378676307    4.37437185350587   12.58463362531418
O          30.93696699762256    4.86311732885940   10.22398277780744
O          26.25487973309940    4.75824303247207    7.42740408052304
C          32.35520594172577    5.20411012989979    7.78382521629052
C          33.33174903635366    5.34270286184923    6.62546684066045
C          27.78342293537645    5.10937371895421    4.97185876189590
C          27.15041731133742    6.49990664394249    4.86938124859597
C          31.25555403973217    3.85358436417725   14.38144593061892
C          34.61179312563019    2.76572470899480   17.94782641893014
C          34.04101458382081    3.29224339239760   16.77096037664863
C          34.83843022911919    4.03003555530243   15.86028642729287
C          36.18806770759257    4.29504376556355   16.06206346439919
C          36.74752921677641    3.80306675836209   17.25948247340665
C          35.95489610493529    3.05208063804565   18.16321719242231
C          32.69823521045764    3.19035128429022   16.33467692290959
C          32.46648633849652    3.77741375933680   15.12374818851002
S          33.91158922943792    4.51190235550471   14.46414046054867
C          38.07184118927167    3.95133939892382   17.72824763619886
C          38.32178845444532    3.31544562684392   18.91025843024201
S          36.89400392443746    2.50921031949136   19.53004134242578
C          33.86707644442526    1.94166321198217   18.87861625902831
C          36.96980374878278    5.02685408177776   15.08662592131697
C          33.92857100093058    1.94520186875962   20.24365055748212
C          33.11257022113523    0.96588674533090   20.84366165399293
C          32.43782380879706    0.19691690097507   19.94685957327262
S          32.78850706983496    0.68981832899724   18.32283449819927
C          36.58826609328978    6.10350091767112   14.33498794548808
C          37.59940924068812    6.57078342473374   13.47295146631527
C          38.74976789474805    5.84691145549816   13.54261607599255
S          38.60387698942377    4.56317538197796   14.69467639220892
C          31.47228589262274   -0.90732591607214   20.20775737200265
C          30.03715793142028   -0.47741352489105   19.89695135587106
C          40.04223710275914    6.07320926730422   12.83724053950352
C          41.08664497842801    6.66581165872479   13.78677294160922
C          39.56818578433538    3.28043552542050   19.58810940079720
C          39.84416160475444    2.62689522346399   20.77281994552312
C          41.15959553913641    2.73850924269205   21.20248988138039
C          42.01773186671801    3.47903176253440   20.39674638362123
Se         41.08320905305763    4.14392374754933   18.90073941661178
C          43.38632691003848    3.66551627317961   20.70688727729970
S          43.97060973339862    2.95543320184943   22.19444124773391
C          45.59467122452070    3.52572999399686   21.93889458641538
C          45.68938938020873    4.22437921430861   20.74932509372547
C          44.43745561929277    4.31028568024817   20.05437993961063
C          46.93712003868272    4.74746940242374   20.17912899875654
C          46.77598810856875    5.38554372039142   18.87379993311250
C          45.51422030990376    5.51688353865586   18.21438832218182
C          44.28604530702824    4.99358801491921   18.79138389160116
C          47.81519800248950    5.92327514329130   18.15423216633607
S          47.24693000999363    6.58794232970664   16.66076851463470
C          45.60975523102736    6.14426054853596   16.99593505549435
C          46.54687327822354    3.19619845140136   22.95575112940238
C          47.64835682519955    3.88699775995374   23.39098359000369
C          48.33996212932061    3.29397879475562   24.46460267052738
Se         46.29628511192995    1.62888450650123   23.98372941854421
O          48.02888747858911    4.65350347110282   20.72095972653572
O          43.19341604644691    5.12696711595936   18.22781714383519
C          49.25173988590799    5.97022260257294   18.52838230330669
C          50.13180336179740    6.61707893296792   17.46919778187914
C          44.53094071292962    6.49296025072186   16.03572834973417
C          43.82648864139470    7.78609966906514   16.45605870315335
C          47.81272534378697    2.12400410233012   24.91728522710441
H          -1.50879411703965    6.26202294005352   -5.36051110252601
H          -1.72496189832183    5.25809815930880   -7.74725848234623
H           5.28057647436933    4.08569723292733   -4.59799368014962
H           1.56444176375935    8.05496555835356   -2.30607592380383
H          -0.30994637645357    8.84523093846901   -0.69958167067178
H           3.04200401862724    4.55388467529804   -8.73564479888935
H           4.65848519155057    2.87808061615382   -9.86797083420624
H          -2.70518589118598    8.18139185646803    0.05159199763747
H          -3.22067866370940    6.54953364384390   -0.40228285260687
H          -3.62124457534302    9.05385379784138   -2.10927353126765
H          -4.87399699459912    8.23640297462620   -1.16845594142110
H          -4.13052443101924    7.42074015408395   -2.54831494932617
H           6.11410241388189    0.77735970391610   -9.26582856758303
H           5.85851342614503    0.08799363966941   -7.65402100855422
H           7.75340844012857    2.39704341219460   -8.30012237524332
H           8.23748168546082    0.73014856033182   -7.95955540766101
H           7.49003329793271    1.71284277577480   -6.69369390940265
H           5.16008256074273    5.85354478170172   -0.16925614271798
H           7.47605539772858    5.44440577822016    0.81815426939934
H          10.97484016726348    4.92689964620784    3.35263641659219
H          12.74450658780227    5.10230666986866    5.16986847153419
H          15.41588140298157    1.50110860038293   -1.49639720288712
H          15.83837130272266    2.98073117275456   -2.31746184728905
H          15.98629781104568    0.18413910279377   -3.56685574939648
H          17.35952958037528    1.14000930385298   -3.00456090532426
H          16.41414735922321    1.68396359777212   -4.39242601860591
H           9.98665884245579    1.56014457686387   -4.97743457257121
H          11.28013580015687    0.97193900823497   -6.05240655265138
H          10.39818066559428    3.87022170138425   -5.65483184543305
H          10.12041041194733    2.88148125614273   -7.08927488094997
H          11.76525946368308    3.37761409520098   -6.66868614431687
H          14.72326394531170    4.62199305471661    6.55403303928427
H          21.88062191511078    4.61427006020839    6.56011620697873
H          17.42179637680529    5.86717395196673   10.20239294536389
H          15.56695954409061    5.29596455187320   11.91748369176185
H          19.15715380272126    5.84252658139679    2.87817959266435
H          21.09112268369510    5.37957854057882    1.22262700449451
H          13.54618101737239    3.68994117264407   12.21235010376959
H          13.47484457872445    2.33756527014008   11.07154449107067
H          12.21410866261116    5.08510354148304   10.61530738418385
H          11.34349052804052    3.61179078689382   11.05593769731061
H          12.15031411522131    3.72627656758998    9.48838625407859
H          23.22239003335531    3.86259736455649    0.99920564759773
H          23.38071618572271    2.56690910863029    2.19701072184833
H          24.34032344979857    5.44387474099776    2.57582791486533
H          25.37282532144260    4.04493385549211    2.25414628823043
H          24.48079129203694    4.15744356217672    3.77667621422359
H          21.73609198748989    4.24515156594234   11.31100778147627
H          24.17102581614000    4.18236682636377   12.07050612646145
H          27.94434358655035    3.50272424121473   14.14174363719175
H          29.79817337096317    3.22381890294279   15.85709150008134
H          32.58489318249014    4.31144960637518    8.37443966023937
H          32.45926346284823    6.04798548155643    8.47343928321501
H          33.25282366648867    4.49066570543912    5.95328373693660
H          34.35057001124231    5.39350955293421    6.99994662585847
H          33.12682356649015    6.24787970269009    6.05719927575901
H          26.99600066107109    4.38602882578798    5.19198950205210
H          28.25829534417313    4.84996567409478    4.02359387476292
H          26.61132811390255    6.72687909814217    5.78489386102682
H          26.44910258391862    6.52379583668697    4.04030330448762
H          27.91363369404882    7.25813452797863    4.70720384131415
H          31.92851298577529    2.69323106986316   16.89475295514308
H          38.84003252756545    4.51626448731362   17.22566896468568
H          34.51391036414736    2.65078213787129   20.80493645101805
H          33.03440807612412    0.83376648437961   21.90839064271294
H          35.62611436810549    6.57431222787272   14.42408713406393
H          37.47477043064730    7.41805934733518   12.82191622336347
H          31.55047230050762   -1.19968549742237   21.25705217982072
H          31.72717512498296   -1.77302185110482   19.59106914128473
H          29.75843953363860    0.37927705023334   20.50668361886339
H          29.34624887525936   -1.29107949133881   20.10287543397077
H          29.94654438186382   -0.20100487325546   18.84878016713301
H          39.87380815841664    6.75532941544060   12.00107574882664
H          40.41691977735851    5.12705688767721   12.43916524893971
H          40.73695488659259    7.61705133280447   14.18249134995957
H          42.02476087997685    6.82850399098803   13.26150725820753
H          41.26507040303596    5.99041772190646   14.62078040547051
H          39.09451382032301    2.07388101604766   21.31552386923603
H          41.50763490046630    2.27311177913868   22.11134035903208
H          47.95830272478958    4.81470916182685   22.94669539002075
H          49.22177107547078    3.73914269311792   24.89350198626764
H          49.58619590699109    4.94817001753121   18.73266237069394
H          49.34193885054842    6.50658226896777   19.47851885213930
H          50.07398793588649    6.06461356886815   16.53354427844821
H          51.16722585427541    6.62924769640366   17.79900816714819
H          49.81679582319500    7.64189980794602   17.28254573704322
H          43.79630309083215    5.68572900698666   16.02135982318957
H          44.95686412156665    6.61344616849633   15.03766541115548
H          43.34792777268479    7.64723716514354   17.42149747854602
H          43.06449418675844    8.04432906709510   15.72646327710945
H          44.53912096106858    8.60532778918397   16.52628784293006
H          48.19662364352351    1.51582832409709   25.71698101086927
