254
 SCF done       -456.003418483354          0.000491115044
C           1.28661782692199   -1.00603489922859    4.89349748970734
C           0.08371951585455   -0.74619279481807    5.57578491163895
C          -0.26905368350276    0.58215653039719    5.91215861011617
C           0.52770944886516    1.68559348598092    5.61927231333453
C           1.72368685813948    1.42697808484976    4.92321099485506
C           2.07254562776956    0.09795923261321    4.57741488847169
C          -0.87637925733523   -1.68052844645299    6.06512484640867
C          -1.89743713802539   -1.09331466472624    6.72060855117896
S          -1.77241372479437    0.62912982485501    6.79299616336174
C           2.67610799634748    2.35819840466435    4.44730120343235
C           3.71691904825628    1.79290097421702    3.77000278931796
S           3.56725620754905    0.04843133007172    3.68112517013671
C           1.71562747049250   -2.34488361512503    4.53685500172762
C           0.14829638798568    3.02043655825245    6.03506892399557
C           2.98118708404011   -2.85436869018299    4.60157314437005
C           3.05605687576359   -4.18713064199090    4.14514734024951
C           1.87049940675937   -4.70424211335736    3.71096350466791
S           0.61544944075671   -3.52763682774035    3.88526309747370
C          -1.09660097086924    3.58163820443883    6.03625960682812
C          -1.10031283166763    4.89545556640030    6.55232781787007
C           0.11917588975288    5.34479603354364    6.96767080875990
S           1.31752534933246    4.12577661579241    6.70489403670717
C           1.58112897456503   -6.08115249940508    3.22446194100676
C           1.19908863335926   -7.00089031978609    4.38719319445495
C           0.49211709135033    6.67144295785747    7.53064888992072
C           1.36436132404105    7.46422118693967    6.55536591696807
C           4.82804271257007    2.48432996028317    3.21683513488396
C           5.81617131077627    1.94771030886113    2.41573799401138
C           6.80629322522557    2.84537734314906    2.03917095073698
C           6.68898207450091    4.14133754966114    2.52978872060268
Se          5.13060943757945    4.29807897392482    3.57898694289694
C           7.65128215815787    5.14722835116690    2.27714976498173
S           8.95530796154908    4.75265487017561    1.17678638686636
C           9.75563935616604    6.29095259313927    1.41620149805356
C           9.03299908338304    7.06243138511369    2.32170753792395
C           7.82775014177450    6.43648476834578    2.77447001209510
C           9.44988002394024    8.36242497036118    2.79091432353658
C           8.50554876951437    9.03796049226194    3.66252938734395
C           7.26446216506902    8.44569565039607    4.05785737660635
C           6.87992478204060    7.10741598745877    3.63286184042573
C           8.69785025307102   10.29417234508206    4.18833109182286
S           7.35092376791136   10.75439126988233    5.16818105451040
C           6.52684401291571    9.25997091703280    4.88236563174869
C          10.93559144051344    6.53418423139154    0.67421188696874
C          11.38234167918445    5.69067464413566   -0.33688865970586
C          12.55944761794816    6.05826822728261   -0.97618526606287
Se         12.12696534156925    7.97785186286961    0.88955259982367
O          10.53886237804508    8.87129433409995    2.49596486834715
O           5.80366570589152    6.59882613391288    3.96868971425817
C           9.86658638731957   11.18763821653057    3.98612307204464
C           9.73557860517256   12.52636484354872    4.69694899576885
C           5.17477249785078    9.03155875986051    5.45362718001702
C           4.09455037517543    9.32120931127821    4.40675439419947
C          13.14546763500257    7.20610407935818   -0.48164739418349
Cl          4.52895459722484   -5.07896770906867    4.13569509725729
Cl         -2.53820957415116    5.83845475861446    6.64817068046330
C          17.15528171574508   10.16613692548793   -0.47011616469405
C          16.21006137636230    9.22023935010464   -0.91708806176338
C          16.42583016793180    8.50742958748911   -2.12285730450428
C          17.53912954867449    8.69966262626314   -2.93324442011966
C          18.48777639047882    9.64093680079045   -2.48342766987147
C          18.28801607197989   10.32783011135135   -1.25859642530567
C          15.02944190534227    8.79860130746716   -0.26646231780418
C          14.35531330672801    7.80737366046281   -0.91977685397377
S          15.15825070562217    7.34331182988575   -2.40643236965272
C          19.67243890906656   10.06221882183218   -3.12849774016145
C          20.38680968646747   10.99337649965775   -2.43077708616739
S          19.60298436559474   11.42089515677011   -0.92213744792798
C          16.95076111161894   10.94035532796330    0.73741162559442
C          17.70603507047480    7.95524049477614   -4.16489370761955
C          17.86983052722524   11.29986838698544    1.68102278430848
C          17.31021273493218   12.08166454426890    2.71487860194939
C          15.97984002619787   12.34679254871793    2.56886877135265
S          15.38744475570974   11.60814814530289    1.12201487588621
C          16.74242863232537    7.61275454576769   -5.07077488910855
C          17.25103495088889    6.85303350768081   -6.14526684664108
C          18.58709584381003    6.58683561803397   -6.06838930986274
S          19.25051462132928    7.30536003126905   -4.64294419697261
C          15.05947484369101   13.08734274718523    3.47492900535901
C          14.06342610519035   12.13828244417133    4.14532919331611
C          19.45602767479380    5.86842656589432   -7.04014300373172
C          20.19513152119038    6.85622992745449   -7.94651078880699
C          21.62616571276365   11.56402282302220   -2.82484531114974
C          22.46488642417892   12.32830785218280   -2.03798349987183
C          23.63549524165618   12.73416931876696   -2.66465363420618
C          23.79063997523551   12.35601488035600   -3.99355825981110
Se         22.30238361379294   11.34703414583630   -4.55921668676374
C          24.93161799349243   12.69198538453215   -4.76000957828906
S          26.28464753494512   13.41207459334535   -3.91297585534254
C          27.22595866177100   13.60537560072231   -5.37668797870487
C          26.49158951703197   13.15539286928651   -6.47141242237383
C          25.21828945340632   12.60386960448458   -6.11966518466626
C          26.93590551927120   13.25116686834246   -7.84110472683811
C          26.02086217522894   12.71107408239827   -8.83027829265879
C          24.77664778774537   12.10022989954736   -8.47561534651323
C          24.34137811271923   11.99172990199338   -7.09084434259151
C          26.24554167326342   12.73375282709008  -10.18702885814541
S          24.92468216973175   12.00867230846879  -11.03297021172075
C          24.06535703840711   11.67065895473316   -9.56930173560967
C          28.53621408313172   14.12244567510672   -5.24686237665903
C          29.13822419888996   14.36906720193253   -4.01748802430237
C          30.44386103175535   14.84275161635303   -4.04831212921057
Se         29.72389770951215   14.54863856675702   -6.64573495593992
O          28.00585210706407   13.77938339301167   -8.17093874273082
O          23.30412055026210   11.39703990627708   -6.77508687415395
C          27.42635104264632   13.28786969756985  -10.89663431140319
C          27.33617716389879   13.16758029421192  -12.41045313300986
C          22.75954105172069   10.96442086222657   -9.61588946565941
C          22.94388752811683    9.46514243120195   -9.36200481253592
C          30.95842549104602   15.02286658766806   -5.31668063290477
Cl         18.24593786268425   12.64755760271308    4.04539847831656
Cl         16.25547645306976    6.30800555522273   -7.44027452181084
C          34.71920903862344   16.59520571193956   -8.17733768897391
C          34.00818775600164   16.20711897825615   -7.02352992031349
C          34.63088352256568   16.24421772941129   -5.75048944771184
C          35.95183507136969   16.63406192913881   -5.56115463750790
C          36.67677586264283   16.98431848587013   -6.71923894134304
C          36.04523960822348   16.96495595640099   -7.98907945662713
C          32.67610366916762   15.74881895948509   -6.93830010595280
C          32.25287667190585   15.48950510090951   -5.66616711329363
S          33.51774278787701   15.78145061138642   -4.48864642604611
C          38.03151990565014   17.37636398820972   -6.81738978608392
C          38.42891392589861   17.69416362001101   -8.08447103815263
S          37.12877938120931   17.49697004848976   -9.24465741964911
C          34.10132316367087   16.61906132744858   -9.48787464358633
C          36.53662119417479   16.69073261069729   -4.23668951739555
C          34.65074104138549   16.25779251687626  -10.68518775026016
C          33.75595106564284   16.41696467441430  -11.76484680868794
C          32.53393495273254   16.91604143251250  -11.41951093200342
S          32.47113307421330   17.19269598579267   -9.71455265653628
C          36.35593959941595   15.81843016640051   -3.20134793398855
C          37.05691921169157   16.20215015422536   -2.03833502092182
C          37.75548806784119   17.36809658878019   -2.15691291228465
S          37.56564206650907   18.01028819096639   -3.75081743195837
C          31.33562669700672   17.14604384861011  -12.27210340120696
C          30.30898112225150   16.02612137575681  -12.08231908754932
C          38.63415753512642   18.04189524218125   -1.16245489778854
C          40.11115942878077   17.79590521025155   -1.47924890312599
C          39.71850026209218   18.13027272282635   -8.48690562016965
C          40.06804601718413   18.55048747075593   -9.75540813561033
C          41.39383283235085   18.93490760873122   -9.89400275626022
C          42.19141670953351   18.83391335241027   -8.75949803349776
Se         41.17647175848457   18.18579959496586   -7.30891016640089
C          43.56176353003296   19.18823368382828   -8.75760972989651
S          44.21080195479675   19.86397523861979  -10.23633274124705
C          45.82434982186749   20.02140968134263   -9.57681297297050
C          45.84382040027231   19.55648540648361   -8.26735269890795
C          44.56895553646729   19.09686851802037   -7.80098226896144
C          47.02799672287156   19.52025425673363   -7.43789538134989
C          46.83537504728773   18.95704159796913   -6.11145079263997
C          45.56033942766258   18.50891622595550   -5.64047595648306
C          44.36195684278717   18.59575862563621   -6.46255211263846
C          47.84210723189409   18.78456681519572   -5.19109278593671
S          47.22862416527774   18.05971595305673   -3.74679989166258
C          45.61639281014019   17.98896463300263   -4.37044649576333
C          46.81647178024109   20.56915926385915  -10.43201312131528
C          46.54311254145848   20.98475148041913  -11.72635143010571
C          47.62275052596902   21.50138944213548  -12.44637581902109
Se         48.64017236299077   20.84968527435140  -10.04063666220986
O          48.13223795619236   19.92068605960123   -7.81905623375197
O          43.24878447038955   18.26676020374743   -6.03514994384691
C          49.27561120821286   19.14166667449580   -5.34013097885261
C          50.12686086191243   18.73598978911041   -4.14592398968858
C          44.51586918471689   17.45938766839783   -3.52524340255635
C          43.78622748450108   18.60097904658264   -2.81103942317959
C          48.79925917867329   21.51663321779605  -11.75214402179755
Cl         34.18454936621558   16.00854676176947  -13.38207610919538
Cl         37.02031189131561   15.26769551431707   -0.59239162037602
H          -0.79295090353481   -2.74327343013695    5.93602734393726
H          -2.74378224370729   -1.56523398256249    7.17991148531344
H           2.60413671299835    3.42574591243960    4.57548306081423
H           3.82726988607612   -2.31990065801633    4.99140743494991
H          -1.97656350243675    3.10018650179319    5.65241761801075
H           2.47158438904949   -6.47315273884601    2.72857220763795
H           0.76419107967140   -6.04951404068830    2.50135472511833
H           2.00942806041500   -7.04858929746495    5.11058230209596
H           0.99881675704336   -8.00459517103884    4.02165295586932
H           0.30845792800417   -6.62720552524316    4.88745649911878
H           1.03789144995850    6.53012318397960    8.46704419493074
H          -0.42274908602769    7.22648976753391    7.74571369094818
H           2.28189401659192    6.92068921853399    6.34031939588361
H           1.62017306096083    8.42919390418061    6.98593789626625
H           0.83193570955529    7.62744310433863    5.62104036573083
H           5.81314555521300    0.91454078600973    2.10788295249050
H           7.63727102087336    2.55693708574293    1.41514469272737
H          10.82881614267140    4.80692064838155   -0.61221097820151
H          12.99346978090267    5.48792334835885   -1.78141277688560
H          10.00194685640311   11.33744875237288    2.91009530032563
H          10.76419713700248   10.66125118199391    4.32657524541884
H           8.85099356795343   13.05838883346855    4.35285347696199
H          10.60760666964078   13.14275863350879    4.49595018356969
H           9.65298731745755   12.38353139828434    5.77246461520569
H           5.03077565381151    9.67775187545228    6.32158992928587
H           5.09097324015597    7.98734916414324    5.76073698353702
H           4.18532483205860   10.33945136603645    4.03426104584839
H           3.10986576267246    9.19438647360507    4.84668077666891
H           4.19315053404014    8.62867618370409    3.57546624644233
H          14.68215035918501    9.18113498496146    0.67903924250649
H          20.00904312369219    9.70078511553146   -4.08616670674570
H          18.89863994077215   10.99173535866490    1.67018229602966
H          15.71467864499130    7.91708135874488   -5.00281845912700
H          14.51040499759756   13.83963691738794    2.90296341586857
H          15.65504716942680   13.59796869469358    4.23386139945222
H          13.45784847571778   11.63271440163034    3.39591731285481
H          13.40765243481140   12.69354285581186    4.81119448132434
H          14.59205779753167   11.38680921934324    4.72707264545187
H          18.83275133072511    5.20815331858075   -7.64636117446087
H          20.18421231554940    5.26063756394980   -6.49923801685241
H          19.48213745204435    7.45407117233851   -8.50958679023255
H          20.83009163078302    6.31847617940953   -8.64606622776571
H          20.81549127876572    7.52303192328948   -7.35157340409855
H          22.23239246763467   12.57231479977876   -1.01401832926858
H          24.38417416754997   13.32448565869816   -2.16057290962611
H          28.61494042082692   14.18385900584935   -3.09264983326902
H          31.01137066284906   15.05785186812155   -3.15728545077785
H          28.32109548082223   12.77765654593954  -10.52565554548020
H          27.54195124138770   14.33605235884118  -10.60292899841494
H          27.24724566504261   12.12474873190397  -12.70795784501128
H          28.22838486461166   13.58296868806361  -12.87087050804963
H          26.46940044220263   13.70669169628028  -12.78724704396553
H          22.29608775098986   11.11817623026307  -10.59235941833932
H          22.10967145120116   11.37032529839277   -8.83806450206762
H          23.62539488136516    9.03338672574487  -10.09203191169954
H          21.98552551392616    8.95894095201126   -9.43412612385858
H          23.34482844103400    9.30800486220560   -8.36444313973003
H          32.02628611062384   15.59656109457858   -7.78463588617152
H          38.71673434580899   17.42431601901999   -5.98712907692571
H          35.63938763567231   15.85393415992190  -10.79867814479912
H          35.77839269285870   14.91534519694871   -3.26667195254919
H          31.65040015932419   17.18572680195857  -13.31663345291209
H          30.87800590905920   18.10257606393412  -12.01024284772914
H          30.74266423361911   15.06840777368778  -12.36081229724663
H          29.43656353344529   16.21019332460355  -12.70425995416656
H          29.99390795919087   15.97327697678057  -11.04225955980624
H          38.39966239050838   17.65459504938887   -0.16915140529653
H          38.43884387769403   19.11654944320355   -1.17160028969214
H          40.33059970716935   16.73104276828842   -1.45083213103234
H          40.73688141888766   18.30165812950428   -0.74802933044121
H          40.35242433454484   18.17398568580037   -2.47046381820089
H          39.36019038189786   18.58233809978791  -10.56797864215087
H          41.79490643324574   19.28861609691704  -10.83046779855411
H          45.55215520372317   20.91207254789877  -12.14534279098381
H          47.52385791714614   21.85463444192429  -13.45952951888158
H          49.34520147793494   20.22145636000808   -5.50789486479633
H          49.65216662257993   18.67564046494016   -6.25630291840105
H          49.77495027243060   19.22528013443116   -3.23977554235163
H          51.16253544866759   19.02063447237613   -4.31114398156333
H          50.08490494261614   17.65943673978803   -3.99306053664205
H          44.92455378962858   16.76618722341000   -2.78730467314021
H          43.80145423313549   16.93305364971077   -4.16091299043280
H          44.48284979652723   19.18798519230425   -2.21593599624756
H          43.02067746579352   18.19488632261089   -2.15646329822880
H          43.31070656677566   19.24842974863580   -3.54273218348306
H          49.73504982507317   21.87643509872500  -12.14090506824626
