230
 SCF done       -398.298589762145          0.000879210419
C           6.97195026822112  -10.54929758407631    0.95945418704923
C           5.84185484463511   -9.70109261305559    0.87888881037134
C           5.89362286624635   -8.40131389072022    0.38543393440112
C           7.14762031785376   -7.95185198520423   -0.07053690861114
C           8.28233311744384   -8.79004223609370    0.03752997239312
C           8.23062293491639  -10.09075342779728    0.53024852385207
C           6.64211514549137  -11.80180834528548    1.55572587391262
C           5.34133228137194  -11.89571519777876    1.89768015582329
S           4.42308383504114  -10.48041534043190    1.52481577234373
C           7.45586087459175   -6.72648365043801   -0.70942307856802
C           8.77171003464661   -6.58915107186479   -1.04888097310316
S           9.70465396260736   -8.00096673821189   -0.58585019516402
C           9.42047522466926  -10.91886187515748    0.55455167453400
C           4.73758952782761   -7.52889662794864    0.36427151027202
C          10.69711606388164  -10.54481159497429    0.86394366829490
C          11.61173942912678  -11.60461169941900    0.70892043630109
C          11.07887713286731  -12.77967097637029    0.27055642292917
S           9.37343627640402  -12.58730584565760    0.05161223349399
C           4.68495827561486   -6.20952953978481    0.71670812168263
C           2.44035284883973   -6.55821881602550    0.14715962222671
S           3.16884826956623   -8.10286123823320   -0.12726273675621
C          11.76684561291385  -14.07706557976280    0.02075675366916
C          11.27317046273151  -15.16835402397371    0.97105008762315
F          12.92405946503108  -11.45933129916022    0.97233916672019
C           0.98510271566009   -6.32276972437360   -0.06337973273573
C           0.14249035716794   -7.12097330148255    0.93250070158207
C           3.38471967809997   -5.68358159998655    0.59638470924076
F           3.09952515863497   -4.40579400564600    0.90789502629012
C           9.35265782299893   -5.46954995478309   -1.71464568587395
S           8.27611823980392   -4.32212213675413   -2.46684490025002
C           9.62008248555692   -3.35819334611949   -2.99615754005523
C          10.81486012065142   -3.91290537570455   -2.58978601869493
C          10.68214802606619   -5.11057396226647   -1.87721109978544
C           9.45323867063540   -2.17286530008426   -3.75872518123999
C           8.32070535605200   -1.69422441844594   -4.40644121945434
C           8.54703467609683   -0.49306740968627   -5.11116992209833
C           9.83227994273065   -0.03212359758335   -5.00058595339103
S          10.79970759828088   -1.10165899806342   -4.01610585032967
C          10.40022592360257    1.13861885062447   -5.57662080764098
S           9.55928255165989    2.02881878885443   -6.80744743896829
C          10.86948163318204    3.17636405651019   -6.92351480221529
C          11.88888139997686    2.87529376290413   -6.03576034183108
C          11.61352835507367    1.71741044773246   -5.29222311310057
C          11.82765666710817   -5.91406746343434   -1.34260488829143
C          13.18724531159445   -5.24728944922346   -1.50909657665306
C           7.07033767052108   -2.33357991519160   -4.40024450180945
N           6.03324044098751   -2.82413269346385   -4.42919968962146
C          13.13887186083853    3.69025537716808   -5.90792105563091
C          14.16665929340502    3.10882929577932   -4.94554975015216
C           9.97527365191283    5.38237084738340   -9.75902905786151
C          11.04803742181084    6.21885977031779   -9.36387271501269
C          11.39349164263510    7.38852214902095  -10.03273376515042
C          10.66898580251645    7.66791380412463  -11.21010329124463
C           9.61307238198004    6.81830656644011  -11.62047256260380
C           9.21192295636741    5.69713693804674  -10.90184663961699
C           9.84447636266416    4.26044366230023   -8.90886562672839
C          10.75973259669912    4.21339887959399   -7.89527166223441
S          11.83520091894194    5.59670561115146   -7.94010351464292
C          10.87274853356335    8.72649237790986  -12.12276435240082
C          10.01383325184738    8.72816839722089  -13.18556720335503
S           8.88821989554343    7.38758793648764  -13.09988216431581
C           8.06046896902506    4.91681958789228  -11.30502935329582
C          12.42315362743781    8.27887457222987   -9.53949100714522
C           7.65672052520842    4.59937172278294  -12.57122533367391
C           6.45195492460559    3.87061047820828  -12.57560092742420
C           5.90531047357376    3.63253309917333  -11.34993690075339
S           6.91819111145017    4.32114297670149  -10.12893279490210
C          13.60320212194451    7.96048979062928   -8.92684288857556
C          13.74708981650359   10.29992895707668   -8.86111187961805
S          12.22518781300609   10.01082446819656   -9.62442744381029
C           4.66217015158511    2.88387707397939  -11.01443543319503
C           4.96127365176091    1.65342914402786  -10.15775942763791
F           5.88185380764453    3.44243866934905  -13.71767729035952
C          14.27108199826606   11.67895765705090   -8.65928436438182
C          14.55322364020763   12.36856137264824   -9.99578040967758
C          14.33657176025111    9.10638509064930   -8.56464694839389
F          15.53962782951016    9.02149641691962   -7.96521879986003
C          10.03024308618721    9.67894292839377  -14.24541813323142
S          11.07061068633763   11.06558749129777  -14.05810949288823
C          10.62283906481885   11.65560735072671  -15.62811234310889
C           9.71652950671736   10.81014255748073  -16.23285271025238
C           9.36279011732383    9.69706854828004  -15.46103027534071
C          11.16613952988714   12.85091488336634  -16.16486644928536
C          11.91857028821525   13.83557789371609  -15.53413421582723
C          12.28266227649749   14.89408800195917  -16.39350434548485
C          11.84052712392151   14.72627450474811  -17.67902398978057
S          10.92939805775296   13.24537083751076  -17.84179238260976
C          12.06994193254552   15.56188844196764  -18.80822700844129
S          12.69290732481933   17.17260079653282  -18.62871021537569
C          12.71416898209063   17.39414893589800  -20.35954240318691
C          12.25938167846190   16.26808196125543  -21.02327732580190
C          11.88709461621542   15.24882084809657  -20.13359587498207
C           8.39158786418469    8.63736498343804  -15.88121600115378
C           7.80938221599289    8.84258976080768  -17.27368538391746
C          12.29641112981295   13.80149045697012  -14.18219557030618
N          12.63022963201708   13.81014040992718  -13.08393556979921
C          12.17367229359257   16.16793168836447  -22.51543835178916
C          11.45586802397596   14.92023422152681  -23.01443747743821
C          13.79915802861643   20.89501864285801  -20.90469805938713
C          14.09218329924393   20.52270985558858  -22.23952041077569
C          14.64671219129450   21.38870293892522  -23.17566692033033
C          14.85297423581643   22.71716893443994  -22.75290126708127
C          14.52133063824278   23.10125241215309  -21.43070463953584
C          14.02148708604625   22.21976860273498  -20.47694112951742
C          13.28122279530617   19.80834156445501  -20.16100695582815
C          13.17568006522310   18.64463856214760  -20.86747569655654
S          13.71790893751433   18.84562893979080  -22.52202038399668
C          15.36157685193730   23.80149846560487  -23.50278841391355
C          15.44940527695175   24.97477753407368  -22.80649460094943
S          14.87828671214680   24.78509929088817  -21.16048445401235
C          13.76401256554391   22.65617434467421  -19.11979902764051
C          15.02324082801395   20.92609918027214  -24.49571723997575
C          13.25734617287920   23.85760123444877  -18.70965809803588
C          13.18034504477116   23.95000999068400  -17.30706999072052
C          13.63115104245249   22.86118568674555  -16.62211765860274
S          14.16319950402715   21.65926631059725  -17.74551379368460
C          14.36520199805736   20.03867765101282  -25.29957893431809
C          16.25545095313003   20.43889768390220  -26.62630023004484
S          16.52708440624769   21.41985427427644  -25.22830458192551
C          13.64671589728168   22.62838340694843  -15.15130924354301
C          12.62608761896069   21.56278053213613  -14.74739030557316
F          12.69595641755579   25.04319850225884  -16.68956404371365
C          17.21828906990465   20.40199037449716  -27.76225713578815
C          17.40956143579208   21.78604743707688  -28.38263880271554
C          15.06646332731453   19.78585100013667  -26.49434751572667
F          14.59013143671675   18.95278238033671  -27.43866309861516
C          15.94673537425320   26.20698357133168  -23.31787299305118
S          16.66750493324794   26.19603823740504  -24.90504816024518
C          17.00714068525550   27.89877769202000  -24.80894770551470
C          16.57015077230766   28.41678028460510  -23.60906753822645
C          15.97395123835955   27.47587077462257  -22.75879688496354
C          17.66497525144416   28.56439770402092  -25.87710520037684
C          17.99144219034053   29.91156276081292  -25.99897103821845
C          18.66606612311595   30.21303369960935  -27.20211851417960
C          18.86256555746289   29.12081799721332  -28.00393669460856
S          18.20202787247643   27.68105285579196  -27.27337628961019
C          19.51232510004520   29.06107274525152  -29.27148000121011
S          20.18730367667281   30.49119369617936  -30.00148361429666
C          20.71942810142926   29.57874835321444  -31.35640935257798
C          20.40143087665835   28.25678685820162  -31.26669844352098
C          19.71135462347619   27.96514809902493  -30.06974090902246
C          15.42044695063409   27.79270587304198  -21.40411526720193
C          15.46780371870652   29.27165261625197  -21.04201725887867
C          17.69772788870803   30.90334915148567  -25.05128209915664
N          17.47448139111925   31.74541382467394  -24.30358392851032
C          20.77297814637813   27.22309141502197  -32.28251469851103
C          21.96563122832309   26.39471601484517  -31.80234742679759
H           7.35501205944286  -12.58597582843014    1.72934052189658
H           4.84122541129156  -12.72425946400536    2.35966999401272
H           6.72272075830030   -5.97389199523708   -0.93630722089997
H          10.98129540201853   -9.57279808254068    1.22070664192935
H           5.51825907338273   -5.64288661924517    1.08859351394880
H          12.84029267102976  -13.92535011520344    0.15248527919836
H          11.58884030499624  -14.39218539855721   -1.01114547207656
H          11.45510010713205  -14.88274605163986    2.00462113702677
H          11.79349477829884  -16.10150349301842    0.77206187084728
H          10.20547991906355  -15.32898953463621    0.83766590610635
H           0.71114572704766   -6.61250421696776   -1.08105196588996
H           0.78980956062842   -5.25482985571197    0.05469054799892
H           0.33366957208239   -8.18579977267705    0.81873332387654
H          -0.91468443771606   -6.93491855907166    0.76239737987773
H           0.38650021719739   -6.83253099388198    1.95238502003240
H          11.75652198744961   -3.45208958285352   -2.82653874743174
H           7.78538592040588    0.01512690637048   -5.67569694671849
H          12.27492812843792    1.30259110466028   -4.55365527907365
H          11.83966669453686   -6.88502034329068   -1.84780602549398
H          11.65180984877471   -6.11222058402119   -0.28126140496276
H          13.42616438332455   -5.10807658141706   -2.56062740626929
H          13.95640975504489   -5.87594643648411   -1.06727080862398
H          13.20756843000089   -4.28078587822999   -1.01091927462356
H          12.86741214038023    4.69817042815572   -5.57846160323900
H          13.59221597469134    3.79340595345946   -6.89842959211933
H          13.76799133778962    3.05723290252768   -3.93523463030176
H          15.04908617427674    3.74375774174189   -4.92995867082154
H          14.46907358783534    2.11189037627090   -5.25786636074276
H           9.11727981728732    3.48252824776583   -9.05274998066597
H          11.65127998360672    9.46042796107087  -12.02695167899150
H           8.20241371284380    4.83270000614048  -13.46587251377294
H          13.96638277154297    6.96177190118103   -8.77349049692329
H           4.18233917636156    2.58247467063096  -11.94804083597318
H           3.97519355066132    3.54010170172049  -10.47262210039763
H           5.63211807579091    0.97791288681072  -10.68373775168382
H           4.04096267598560    1.12175191735624   -9.93138963177843
H           5.43139514514065    1.95057081656201   -9.22268697214252
H          15.18921718333710   11.61416330640539   -8.07103084132273
H          13.54258098532019   12.26930080618695   -8.09734846208173
H          15.28133018287626   11.79972272730200  -10.56974761964344
H          14.95090486014355   13.36494545045436   -9.82396962111801
H          13.64261430808963   12.45805623443332  -10.58356990695060
H           9.32404846737390   11.01599464074483  -17.21206286767768
H          12.86438230031931   15.74160165818327  -16.07667661091667
H          11.50530953212004   14.29144597475744  -20.43799720043051
H           7.57638136184371    8.60217448032233  -15.15177737952592
H           8.89354524758314    7.66594843392970  -15.83962047518203
H           7.25981333107516    9.77920903110087  -17.32988963795474
H           7.12306973257164    8.03142649533961  -17.50380169976771
H           8.59521709636356    8.84806663877708  -18.02541090262886
H          13.18837969725770   16.18685881200136  -22.92586034094110
H          11.66111498307043   17.05551857064862  -22.89754709814349
H          11.99543907709308   14.02027385290274  -22.72962905214827
H          11.39199491984279   14.94721339454355  -24.09945785969760
H          10.44622350282690   14.86882394286136  -22.61334479932251
H          12.97164742927402   19.87672796141516  -19.13447669913944
H          15.64457872933213   23.73432777541471  -24.53718099764535
H          12.91213295826094   24.63417183606803  -19.36572478490689
H          13.40634469517135   19.60763369230283  -25.08146959371121
H          13.41593258635645   23.57172242977761  -14.65195952606094
H          14.64428401705232   22.30767058375005  -14.84056914260279
H          11.62276035460228   21.87175242295046  -15.03186630217940
H          12.65020316683754   21.40975771271700  -13.67181349919798
H          12.85143937067656   20.61888045353011  -15.23926298541217
H          16.83665585496218   19.70475058203255  -28.51124565900725
H          18.18467457641147   20.02992522467837  -27.40991052847472
H          16.46259835183835   22.16923308290757  -28.75597827404448
H          18.11247521132206   21.73121085903253  -29.20977184171999
H          17.79619686663500   22.48172531422935  -27.64079382870777
H          16.68735284394199   29.45354970275598  -23.35912481736892
H          18.99487722103799   31.20367484452198  -27.46249822021240
H          21.23850758210630   30.07955606065981  -32.14959571395271
H          19.36637939526927   26.98146396986664  -29.80253945936618
H          15.97737119649176   27.21997731555382  -20.65542625896985
H          14.38370809605086   27.44483806463496  -21.36044440684498
H          16.49258300204173   29.63300863122677  -21.01022775273040
H          15.02442992219158   29.41881765765360  -20.06026199719297
H          14.90952179450444   29.86529998073535  -21.76183545305053
H          21.02338517252392   27.71170996600924  -33.22560556746240
H          19.91943324888439   26.56330281041094  -32.45339747680311
H          22.83007509211731   27.03496155209832  -31.64145049159353
H          22.22479481640060   25.64136809002699  -32.54222817525763
H          21.73006964430600   25.89498862892438  -30.86562740930937
