254
 SCF done       -480.666508342873          0.000592300759
C           4.69227870659219   10.35786953818424   10.70991898574103
C           3.48757965491973   10.71622847789528   11.34286663061746
C           2.26136614297729   10.63326259742970   10.64092915533256
C           2.16736666775586   10.22008929294685    9.31608659438388
C           3.36587607402483    9.81597130628705    8.69884374524444
C           4.59199416579654    9.89134924354445    9.40204774189188
C           3.29054155823209   11.16931427918940   12.68043550922386
C           1.99924351191548   11.43760424284248   12.96091776582313
S           0.92919918109663   11.15772426671740   11.63375723689576
C           3.53128506491234    9.30368562979135    7.38830970837079
C           4.82794483616916    9.03001390253066    7.06591957870806
S           5.91862318221543    9.37404232400661    8.39823002331200
C           5.98413685500250   10.48792162235920   11.35577783690546
C           0.91704581050489   10.21744012153991    8.58362188992292
C           7.05483602829091    9.64391573641129   11.27489475818766
C           8.17590505296245   10.11949016069378   11.98805167021348
C           7.99153433906307   11.32705959782632   12.59578291744667
S           6.38324099691257   11.89153956895306   12.30808983555491
C           0.69814250722239   10.63389534624357    7.30095005169980
C          -0.64656555809546   10.47989786472630    6.90313442158527
C          -1.45854017230425    9.93743408060467    7.85690975557434
S          -0.55624209373303    9.62732767995536    9.29894217795183
C           8.93741432163328   12.09122479501376   13.45487770603585
C           8.73533969471120   11.74917593739675   14.93325141413110
C          -2.92277480098589    9.67735550030361    7.79250235592411
C          -3.71298461566521   10.86610086170168    8.34528513306826
C           5.35854514708382    8.52536650619089    5.84153624463552
C           4.75602461966345    8.36954179422034    4.60599389486758
C           5.60165976633069    7.86511001008369    3.60918387739854
C           6.87704990777454    7.62854222759550    4.05690320310006
S           7.01625217555444    8.01940450776723    5.75088825660258
C           8.00431919990843    7.06358519462644    3.38505120213469
S           9.09634967070026    6.10696252420794    4.33347996546535
C          10.09671677359377    5.74210716261734    2.95554373494138
C           9.59630277885448    6.35204526308703    1.81057200674499
C           8.42131222611582    7.12818095276665    2.06495246260300
C          10.15505690799122    6.23989454249161    0.45492110469291
C           9.67366190107929    7.26000465606032   -0.47429100052522
C           8.57656659191644    8.12759850740583   -0.17561866439979
C           7.82764367310558    8.04203271404703    1.07604572930985
C          10.21421457040513    7.48865795524061   -1.71543000890936
S           9.37858372308254    8.77109983372810   -2.52251125520362
C           8.28524627506661    8.99365593155680   -1.20050364533226
C          11.26786308858859    4.97342937777238    3.23056991149049
C          12.17506827453295    4.34298959025410    2.41258380270258
C          13.20678876202697    3.71249693040557    3.11882676165317
S          11.70755159744533    4.75047473383053    4.91155242898292
O          10.93512749414770    5.36685601794385    0.10845750809653
O           6.82920942975773    8.70861392248469    1.29440889885602
C          11.32628130897976    6.78219030392090   -2.40147961384522
C          10.80240710410168    5.54895764679856   -3.14358524128218
C           7.24968592299674   10.05706962549046   -1.26241778489327
C           7.72385294755533   11.31904711002036   -0.53535928212364
C          13.11793326689458    3.82971500547893    4.49330008421957
Cl          9.65686790393903    9.24814680572984   12.07567292738993
Cl         -1.20263207493706   10.93093268264402    5.33682955828396
Cl          3.12447020892940    8.76276175016658    4.25797036709129
Cl         14.47424319046512    2.86589872270048    2.33514247647494
C          15.00225976620669    3.01465050597815    9.04680737136748
C          14.86224773698350    2.99376704604178    7.64232234512964
C          15.87362048291400    2.41971250960672    6.83244509302697
C          17.04457759994597    1.87780656520528    7.34571334428079
C          17.17907370623083    1.88549066739767    8.74676518842823
C          16.16357492196017    2.44466064451171    9.56065667074738
C          13.79986531456625    3.49804535321264    6.85841906618749
C          13.99046424912316    3.35788444660364    5.51133865575662
S          15.49516990362193    2.54889883621144    5.13856062108606
C          18.26624664633809    1.39454484140729    9.50851665315358
C          18.13518510454432    1.60328531134967   10.84975581294926
S          16.61075204742303    2.37811988946176   11.24457302124470
C          14.01052024930609    3.61219325801828    9.91718113388169
C          18.09604557703663    1.36204916685598    6.49132605675382
C          13.60359317710194    3.17654150816322   11.14682336808181
C          12.62851301136834    4.01546258188293   11.72737634608769
C          12.29504447352640    5.10374039956947   10.97450202113720
S          13.19505690043546    5.09497373514333    9.49858214199585
C          19.44259086002821    1.56131242791181    6.59708823887951
C          20.16880456034324    0.90646500261042    5.57911253656014
C          19.39951603362747    0.19812664798865    4.70247524430061
S          17.72810225190664    0.35160771542146    5.12209157828195
C          11.27948032308388    6.15820101075504   11.23913515015460
C          10.03769258032077    5.95716571161953   10.36763273334350
C          19.81776934917775   -0.57413129827485    3.50074506279188
C          19.49246142428074    0.19096448762922    2.21609055997891
C          19.07717573000018    1.30642694873873   11.88140065578080
C          20.43954182208989    1.09757711147696   11.77871184953424
C          21.08516091692900    0.90386830775326   13.00715357434542
C          20.22910590666078    0.96118273439683   14.07487726773714
S          18.59450923834375    1.23422826513837   13.54805177808867
C          20.54968275549603    0.78204755336224   15.46140765847931
S          19.58338410160793   -0.27250399058619   16.43907100520613
C          20.62604948066318   -0.05496943831357   17.81774580594697
C          21.65214065242322    0.83709638535442   17.53093883678016
C          21.60602383668357    1.30595089285907   16.18186544277616
C          22.63757845755482    1.35224648095085   18.49470170325176
C          23.60901922268444    2.27767014058082   17.92082289290441
C          23.55623775369464    2.74695038152087   16.57174578683592
C          22.50885211668662    2.33818232543924   15.64083703975598
C          24.67314238559923    2.78960612586520   18.62543822724618
S          25.62712499277094    3.83008433768661   17.62674759644679
C          24.58774754281817    3.59789440565761   16.26236091671144
C          20.32226979285197   -0.82781964561654   18.97936118124565
C          21.12622635391062   -1.23020810150447   20.01852754814868
C          20.46828666339450   -2.05333955200069   20.93868353015390
S          18.72326415394998   -1.50890830677588   19.15142966583962
O          22.65515498020513    1.05609516700490   19.67977971918652
O          22.38095920631061    2.82116799783943   14.52841021510843
C          25.02980319945575    2.53431489243338   20.04405692531607
C          26.34445430511326    3.17491245167963   20.46396668841496
C          24.85696137789752    4.31626483257267   14.99082263620378
C          24.08445076717289    5.63810499492052   14.94525356265092
C          19.14544791636276   -2.31795823844080   20.62865772268958
Cl         11.92718127265328    3.68028067729086   13.26358316987474
Cl         21.88562128149112    0.99777555021570    5.47365192560608
Cl         21.32353074378240    1.11366469366027   10.31131626477882
Cl         21.30083934809416   -2.67029101553561   22.30294808773864
C          16.93539543695097   -5.16966198742728   24.10869118853764
C          17.13019638970391   -4.42042032260694   22.93052614373898
C          16.11584681303358   -4.36520257073404   21.94232784550955
C          14.90679271295122   -5.04218269124992   22.05215040337164
C          14.70415246455049   -5.78036541749670   23.23646983641018
C          15.71986651100883   -5.83624437535158   24.22197614374088
C          18.28701601848402   -3.70631574339298   22.54164911213731
C          18.17947625427169   -3.10571461643290   21.31965336173456
S          16.61714099710406   -3.40327322424105   20.58012077765682
C          13.53629851897674   -6.47518778398962   23.63572546364316
C          13.64213331369330   -7.06541847737209   24.86246209695862
S          15.21124481349634   -6.78004158711490   25.59280850893927
C          17.92355111923255   -5.23844939967832   25.16546351738730
C          13.90494337821918   -5.01658871861647   21.00639641858564
C          18.24086240862662   -6.31359293927446   25.94697448427909
C          19.22125632506859   -6.01274784995317   26.91589542006790
C          19.64697986352833   -4.71609408904025   26.90693174353811
S          18.83492779511085   -3.83780260162041   25.65921189071684
C          13.14970078115816   -6.05672086189502   20.54308243962183
C          12.27428564907861   -5.67108098111217   19.50611778586351
C          12.33754969935615   -4.34788772293277   19.17659248357235
S          13.52250930041920   -3.54922804189797   20.15078412986110
C          20.69527310374023   -4.06697391195724   27.74044069858799
C          21.99763621683397   -3.90653722927806   26.95254233921155
C          11.59610066169926   -3.61464339033795   18.11462644272208
C          12.44733281201948   -3.47491685399310   16.85025704081308
C          12.68982431124499   -7.84779836256016   25.57952542894838
C          11.47230622273484   -8.37213070439021   25.18485152126904
C          10.81715833920107   -9.12234139703283   26.17116865275725
C          11.52264086820788   -9.19563526517451   27.34652840607319
S          13.01442545594029   -8.29985463893266   27.22337443243861
C          11.19728976922421   -9.79344953296621   28.60383898151703
S          11.84197583681630   -9.02440037050931   30.02200866731304
C          11.07784044796571  -10.17105767352657   31.07865806147255
C          10.37874787657831  -11.12263299024433   30.35521604962165
C          10.45170843802765  -10.91177597365862   28.94242696527405
C           9.70320554341656  -12.28631966749286   30.95083982484744
C           9.25613306424850  -13.27869439301958   29.97462366624929
C           9.35978483714574  -13.08297119217077   28.56024600080332
C           9.91388616894824  -11.86869109863247   27.96380814225782
C           8.69956596221322  -14.48938238769350   30.30681281067478
S           8.28739095529178  -15.38825806549179   28.88714615249730
C           8.86086873010560  -14.13886745436086   27.83747347953313
C          11.28927048672987   -9.98849247584877   32.48505652465180
C          10.46694443171455  -10.21858857617936   33.55522588164662
C          11.05524306244370   -9.83084549198666   34.77604408779936
S          12.79528746928742   -9.26786908484968   33.00524756319965
O           9.53641027561533  -12.42378796499498   32.15131022527230
O           9.95539815106278  -11.68744359871332   26.75768838679532
C           8.38882063313289  -15.04504309495447   31.64894553458569
C           7.01672460490925  -14.55977793840010   32.12635600539138
C           8.81865582544805  -14.33269561586371   26.36510330246138
C          10.16700178611353  -14.84389781837949   25.84857901504079
C          12.30616441398952   -9.30546566550752   34.64376660750053
Cl         19.81679496113859   -7.19380077094076   28.01786539192524
Cl         11.21235357799878   -6.78711690087798   18.73592875298297
Cl         10.78661405575201   -8.16437446388361   23.62804251548638
Cl         10.26284005334747   -9.99912709826028   36.28862738992276
H           4.08317033208270   11.27462189534986   13.39725929036302
H           1.58619252329628   11.78544976678268   13.88741684557213
H           2.70702610405498    9.11503305936712    6.72921693610099
H           7.04268944754961    8.70244629082340   10.75813513004646
H           1.45101894217524   11.07390244057235    6.67342948684873
H           8.78213983892954   13.16146938650477   13.30566719839383
H           9.95908168412439   11.84325676395696   13.15956487254826
H           7.72203458202507   11.99515975546691   15.24281943408858
H           9.43361232171789   12.31245207635726   15.54658313952680
H           8.90201860218093   10.68786890911368   15.10104848975158
H          -3.15973767399372    8.78312106537895    8.37194277996045
H          -3.20399131170982    9.50372108883321    6.75178716698006
H          -3.44376705766158   11.04756307849706    9.38333126156691
H          -4.77958568064789   10.66483174201079    8.29017278942695
H          -3.49709878447267   11.76240439037339    7.76886998263213
H           5.27912413984627    7.68826704373190    2.60144226888823
H          12.09755749222566    4.33143280852625    1.34205719512725
H          12.05506714204197    6.45800093884793   -1.65646078004265
H          11.80882494917552    7.45934370800740   -3.10913119840013
H          10.37292810593587    4.84814196072331   -2.43296952029923
H          11.61847195610374    5.05800233898778   -3.66623803760547
H          10.04168505497466    5.83261900477196   -3.86780500547630
H           6.34225626845431    9.69431704121071   -0.77635740832831
H           7.03218918140155   10.29389826513953   -2.30560852413292
H           7.88266323842082   11.10179439951455    0.51751834988539
H           6.97030885374945   12.09725252904401   -0.61819850587485
H           8.65394094137918   11.68402130305726   -0.96633467883581
H          12.91265916621188    3.95261742972343    7.25886249576346
H          19.09757548105470    0.87751738060679    9.07135353445245
H          13.94824887551736    2.27227857330923   11.61273535881236
H          19.90426782327988    2.18478362062943    7.34025544557620
H          11.70800086704189    7.14113397894584   11.03017286178783
H          11.00079995245883    6.12038465809896   12.29377870841155
H          10.30346732093365    6.00137006085275    9.31364882994188
H           9.30947618023083    6.73604855265999   10.57477436460252
H           9.58376909527188    4.99054009861817   10.57312994627981
H          19.30124345365087   -1.53660857961582    3.48747510157182
H          20.89213646657913   -0.75784047935846    3.55973518803164
H          18.42373399483219    0.38327533350215    2.15298191801280
H          19.79573365220684   -0.38822231048122    1.34787386799656
H          20.01718778921188    1.14329824519561    2.20045122436598
H          22.14163507764576    0.73556447293814   13.09687894749737
H          22.15254841503057   -0.93852088770517   20.12794127482539
H          25.06343979432357    1.45138449285579   20.20047379078488
H          24.21119189290858    2.89839428747099   20.67356833832134
H          27.16593647833932    2.79870741901413   19.85755386728029
H          26.55373257412340    2.94917976707684   21.50622225752124
H          26.29901523543826    4.25593621562327   20.34783481071405
H          24.52867623131795    3.69327360601381   14.15679001164989
H          25.92723469913740    4.51218034212286   14.89927084290126
H          23.01634215786979    5.44055506656696   14.97585629477200
H          24.31279087935809    6.16760299294129   14.02452533401449
H          24.35401637557091    6.26930510139903   15.78958485946580
H          19.17063899335729   -3.64770478139685   23.14475609822419
H          12.63940319360172   -6.49709446324305   23.04859514347420
H          17.82801641575523   -7.29687040923930   25.82020188543966
H          13.23958244888322   -7.06937766854479   20.89024974512840
H          20.87178811603284   -4.68402020557038   28.62331498716636
H          20.34756784236288   -3.08420810487759   28.06654787079086
H          22.36503180602292   -4.87766295679963   26.62930619853968
H          22.75590375715605   -3.43612399107547   27.57282339319491
H          21.83291610766041   -3.28795089050737   26.07304299612766
H          11.32448173046155   -2.62177420308048   18.47873739311262
H          10.68105830501028   -4.16320732105502   17.88288473348068
H          13.36291432385045   -2.93068967575174   17.07047646367203
H          11.89515454878267   -2.93545137202358   16.08532147341121
H          12.71118249457483   -4.45616714602127   16.46304823425458
H           9.86590386392405   -9.59299048294776   26.01492939099819
H           9.48738605603736  -10.64803293116751   33.47965708954340
H           9.14646699960336  -14.70621699629099   32.35755915951685
H           8.39595767537499  -16.13588453401754   31.60340659714359
H           7.02169728726215  -13.47740248934240   32.22202653172616
H           6.78865829981566  -14.99280345027905   33.09620575104088
H           6.24089828746404  -14.84997578171341   31.42072397823500
H           8.60215536078019  -13.37523878489051   25.88823994333020
H           8.03367028931072  -15.04860160291240   26.11391538600476
H          10.93957138234552  -14.10326821958075   26.03700346845603
H          10.10942848086036  -15.01964643973712   24.77803798598799
H          10.43926826465985  -15.77431379906533   26.34274052291132
H          12.95965259969408   -8.94804149658827   35.41347960172985
