260
 SCF done       -475.821732025145          0.000491065736
C           1.18279213348071    7.75287272253269   -4.28859147418788
C          -0.02220804454838    8.41342499138813   -3.98112752538345
C          -0.22910890224194    8.95548049024909   -2.69008439476874
C           0.70520240480848    8.85802479645379   -1.66367884073417
C           1.92535843531144    8.23178529165099   -1.98275679695978
C           2.13792271271886    7.69764022089634   -3.27689428261542
C          -1.13980180384328    8.65863439265633   -4.83194977512060
C          -2.13750099905879    9.32162780784224   -4.21289174383590
S          -1.79747378858017    9.70176181417015   -2.56200249633078
C           3.05446558597661    8.05813156995766   -1.14841280606461
C           4.08381899191181    7.38756386493121   -1.74094251758526
S           3.70929891709499    6.94890887401955   -3.39656796377347
C           1.43230985458851    7.13999268454232   -5.57803679909487
C           0.46638230503475    9.36258330879478   -0.32750765121068
C           2.60410365711885    7.12349575014861   -6.28215080436979
C           2.51491467817178    6.41443087790135   -7.49611194236724
C           1.28605125492414    5.85076254108519   -7.71631040918217
S           0.20678595384010    6.22065119608976   -6.40813800195146
C           0.79766932078385    8.76941315054149    0.85993362556571
C           0.43980787064522    9.54026739974013    1.98233233792678
C          -0.14579878440656   10.73729086223255    1.66404271309538
S          -0.28444474435393   10.91042155017316   -0.05795070404699
S           0.69225099731456    4.92206972019566   -9.07153374198079
C           2.03625861216674    3.68213973942896   -9.29573248784754
S          -0.74434836641428   12.00013963358323    2.71219611377275
C           0.70765532222968   12.26400682138427    3.81823011482753
C           5.32734946450057    7.06122417460975   -1.13303950754389
C           6.44040056159426    6.47680590139141   -1.70231828162093
C           7.47541431876199    6.31657144223028   -0.79189987176102
C           7.17627482974114    6.76008489496488    0.48966526794880
S           5.55830675776091    7.39496926308533    0.55500617002558
C           8.07747995562897    6.70594678027045    1.58254173168369
S           9.68674407166384    6.11002108902722    1.25602402847678
C          10.18935604922267    6.29284051647589    2.91882802588006
C           9.14302999782897    6.79804112419876    3.68251518368337
C           7.95147071304250    7.03438283365464    2.92790956446465
C           9.23241129671973    7.06625140068961    5.10774258415966
C           8.01917981133517    7.60086868504271    5.71235379225112
C           6.81974801888950    7.81662500903725    4.96200257571859
C           6.73974049260138    7.56641029862865    3.52798392820506
C           7.89264762653728    7.93786463219825    7.03831039444143
S           6.28760385567328    8.48876508264240    7.37517746915697
C           5.78272720580421    8.28257785267090    5.73320645407593
C          11.51625751248376    5.91041237725830    3.23900868184597
C          12.44849921104401    5.47007920396902    2.30761799904648
C          13.67104051884872    5.11275949001629    2.85721549442543
S          12.19162679613136    5.88407591717605    4.84150618842621
O          10.24515490871161    6.84595619563508    5.76782292075618
O           5.72215880824385    7.80758279265697    2.88165833969171
C           8.89822463196543    7.85208082924714    8.12841639583857
C           8.98775918184095    6.42964960014307    8.68870386534032
C           4.39548202157891    8.63005044148496    5.32970082243761
C           4.32644616778804   10.04517328378017    4.74890931100907
C          13.69141924148984    5.26099686618231    4.22995420953377
Cl          3.83934529477610    6.30944625835488   -8.58799808689332
Cl          0.70996234445787    8.99260289683721    3.58895968225430
C           0.81904357170111   13.73535124005173    4.16254996136384
C           1.43304044619681    2.36645785272075   -9.74379425189475
C          16.08482606099725    4.59567427169461    8.55763124285455
C          15.85688415070942    4.68485414089206    7.16774789773864
C          16.88267915874451    4.34265809283647    6.25014832300215
C          18.14074592204918    3.90794503892501    6.64580732841739
C          18.37683716845376    3.83761972940360    8.03392314431259
C          17.34617882063026    4.15901291114447    8.95199082119133
C          14.66026875976457    5.03140509396686    6.50202980645347
C          14.74427795295075    4.97296313463252    5.14007314252988
S          16.33463047468233    4.47545677049498    4.60137580117388
C          19.58555856399999    3.50870318739468    8.68921246331429
C          19.50262672021976    3.53529857316438   10.05149708216347
S          17.90004033931364    3.99256408624918   10.59731178081566
C          15.07047156736362    4.94723228772890    9.53013705258384
C          19.16840425249207    3.52306154138530    5.69945059511527
C          14.82143168456147    4.34189895937843   10.73236738122825
C          13.76492106288011    4.93880193096120   11.44618187893701
C          13.21672752404919    6.02382894747521   10.81549521184892
S          14.01000410087528    6.30878263778128    9.29930236729985
C          20.00831815863113    2.44657512495474    5.77533847151917
C          20.92349607710596    2.38313509962797    4.70691358538333
C          20.77989649230256    3.39897668805955    3.79899467890233
S          19.48913760838309    4.46096488882167    4.26900303454022
S          11.88262276596568    7.04289154229213   11.30675506386387
C          12.53092043921318    7.70167741464435   12.89925647929071
S          21.70214216387711    3.73668887594434    2.35404396193583
C          21.63297573157505    2.10922713706914    1.48905023349756
C          20.53971275794999    3.20908407241549   10.96728157549036
C          20.47309423611780    3.13662723809184   12.34459906649179
C          21.67663624804202    2.74381315025026   12.91150964866749
C          22.69066575520651    2.52188746965502   11.98886839270644
S          22.12292558242550    2.81837108907145   10.37125347380589
C          23.99328380602750    2.07784942627414   12.32949285485453
S          24.28096027330380    1.66143387390298   14.00184720861049
C          25.94766759492804    1.23141669440927   13.70220547003868
C          26.25596595686051    1.41911521367545   12.35904331276826
C          25.15251866382946    1.89584736056006   11.58445494874225
C          27.56545420823582    1.17108280191712   11.78158448030277
C          27.69736874011166    1.53659944696183   10.37653436770741
C          26.59563118267227    2.02323711913353    9.60385387314544
C          25.25602268801560    2.16786605258821   10.16063468280558
C          28.86234161692368    1.45055806380051    9.65401344406580
S          28.61661849786350    1.99783294106273    8.03151447331275
C          26.94118517192632    2.32663884839678    8.30955236344896
C          26.71470792974459    0.79937147834252   14.81291790553049
C          26.22671525003111    0.70597419164835   16.11041625122097
C          27.16689830387528    0.28476336221187   17.03929608167629
S          28.39077510948789    0.33607998405392   14.75542253596764
O          28.50306309907285    0.70124379461699   12.42245465325540
O          24.29343035641803    2.49079254559970    9.46823467721285
C          30.21341176352606    1.02468661974182   10.10359305271587
C          30.92663294601457    2.16357386089676   10.83919195207681
C          26.08732815223990    2.83719237738833    7.20645705337655
C          25.33881372711412    1.69275506564679    6.51752297757963
C          28.40082653291984    0.04730160642355   16.46651286667820
Cl         13.21869791441528    4.32570130802961   12.95514787150111
Cl         22.10838323577950    1.14217108682036    4.58888996669077
C          21.41139965655385    2.33233653089726    0.00673110617391
C          11.62955320973558    8.82100959798127   13.37793372344753
C          33.20736480959553   -1.16881151019030   17.03018693526646
C          31.86170437482891   -0.89898300289347   17.35550206027660
C          31.40776609661789   -1.02873224351632   18.69248101079026
C          32.22768534241254   -1.43597941844269   19.74037327507420
C          33.57700112116776   -1.69234346497204   19.41706342266269
C          34.03172844953586   -1.55846887839822   18.08080691358323
C          30.81504804538995   -0.53196867320752   16.48014492505661
C          29.60867350733830   -0.35922303127312   17.09541261577260
S          29.70672094252544   -0.66472664164125   18.81762682014965
C          34.63054156006360   -2.02793902869525   20.29669843905839
C          35.84492552256425   -2.15945064194644   19.68683041757068
S          35.74240035005442   -1.87409864332981   17.96177531453020
C          33.71991750296087   -1.04156394534692   15.68076620426387
C          31.71309470245494   -1.59461150542137   21.08467741030113
C          34.64837771179860   -1.83991095670287   15.06888947287362
C          34.97995583207844   -1.40934691054860   13.77037529106011
C          34.30663206655987   -0.28534301543240   13.37275013005298
S          33.24349572733550    0.26181540891807   14.63023322491885
C          30.77412433336767   -0.82657555601932   21.71818720264967
C          30.48623608954398   -1.26494074147246   23.02471228534949
C          31.17440624973342   -2.39141919913729   23.39170590692280
S          32.21482794764658   -2.91418083978890   22.10687850622079
S          34.41961065290433    0.58688025923728   11.86036015839013
C          33.76780385654205   -0.69329495956241   10.70419385892546
S          31.16369264080800   -3.26445641631685   24.90487481857393
C          29.35839995137088   -3.52172634230931   25.17046508564129
C          37.07010899939179   -2.48543472262002   20.32891798581965
C          38.34094794322780   -2.53432373363613   19.79193727680060
C          39.29885945512755   -2.87294755370108   20.73704739767258
C          38.78478006917684   -3.10240882293823   22.00674345313357
S          37.05859854207468   -2.89328979650665   22.01635965569299
C          39.57386647679644   -3.43196163835777   23.13858189250456
S          41.30621598332610   -3.45393471580732   22.92441839667622
C          41.59950667077321   -3.88655722910179   24.59173525459470
C          40.39546858422710   -4.01497643519197   25.27139132821954
C          39.25131384674236   -3.75722522182192   24.45044352754238
C          40.28337258372996   -4.38454722311963   26.67453123807671
C          38.91456545393714   -4.50827319256781   27.16919636098850
C          37.77276509348260   -4.26257962152191   26.34194334350198
C          37.89173464620997   -3.83763576245988   24.95380885467632
C          38.57609227637192   -4.86595203855831   28.45085983524269
S          36.85631393405276   -4.93353694630939   28.63517579076737
C          36.58023656299329   -4.46588906115024   26.99306310810855
C          42.95842662463190   -4.03685791552355   24.98035526237032
C          44.02904540083112   -3.86178766248773   24.12037972570236
C          45.27154932113059   -4.06145417139505   24.72411972834850
S          43.52371570664824   -4.45824892360958   26.57422348130708
O          41.25769587871822   -4.59419746966599   27.39101043785315
O          36.90716076418051   -3.56172459100964   24.27162056070518
C          39.46083500515574   -5.22568510741494   29.58903569983214
C          39.88732999596084   -6.69395965060150   29.50060527460696
C          35.19391338462847   -4.30893450700928   26.48249654927483
C          34.74886711577096   -2.84456410503157   26.53106729619778
C          45.14828614108163   -4.38774459745697   26.04396035706763
Cl         36.13408750481903   -2.22863276978129   12.79671346611039
Cl         29.38571572095642   -0.43151412038185   24.05005379769158
C          29.11840540123718   -4.92070268276684   25.70118447216095
C          33.93108054431821   -0.20872262762318    9.27834410281464
H          -1.18353731806732    8.35945933141714   -5.86232072543095
H          -3.07803379153040    9.62878410600560   -4.62629222425041
H           3.12682431954112    8.43806431234861   -0.14632984328388
H           3.49544951079563    7.64118594132702   -5.98047070055590
H           1.23235967887390    7.79058509823914    0.94382874985498
H           2.53946572345005    3.58455115769988   -8.33599183975650
H           2.73023680314023    4.07230389703194  -10.03860000575690
H           1.58371326510296   11.91586467464198    3.27420681346823
H           0.56115515468510   11.65838109548769    4.71153830486866
H           6.49132789654111    6.18674654798173   -2.73715177364255
H           8.42960763294788    5.88510862515472   -1.04078405335901
H          12.22647850045263    5.41672368330822    1.25567513384296
H          14.51099225655857    4.75298269866201    2.28913584283311
H           8.62802664998130    8.54282170571059    8.92909769205160
H           9.87714380362751    8.12622802633278    7.73095712026279
H           8.01993056949068    6.10186984560310    9.06210909666931
H           9.70709783624420    6.40624197755490    9.50259849226940
H           9.32030792601164    5.74707000199606    7.91161396225337
H           3.73589857909766    8.55819938245332    6.19679275542776
H           4.06234787050607    7.92635745013155    4.56444386990682
H           4.68884273226457   10.77521523915753    5.46972425634454
H           3.29746431399079   10.28320216095384    4.49434612871056
H           4.93016011692789   10.10365273126174    3.84729611479491
H           0.94775178134408   14.32867228030990    3.26049904485517
H           1.67556081959666   13.89612795213957    4.81401754147501
H          -0.07797229233492   14.07564981662724    4.67426795026152
H           0.73074660261397    1.99646631284738   -9.00067017676931
H           2.22106470789827    1.62884985659880   -9.88082052770543
H           0.90454040277610    2.49143806361434  -10.68579036610104
H          13.74420194916123    5.29882450324004    6.99465956106473
H          20.50309606687014    3.27978306275927    8.17944044572098
H          15.33438235084597    3.46622552146937   11.08385513296072
H          19.96762649844954    1.70506135397715    6.55164893952738
H          13.54206018787284    8.05763551976511   12.70391047341444
H          12.55913267270803    6.88048663866861   13.61333861000541
H          20.81270837033383    1.55031695753776    1.93436072299343
H          22.57412927016629    1.59419016533291    1.67690423220321
H          19.58016230601321    3.35375945304401   12.90425985958853
H          21.82778572794101    2.61981302011831   13.96995088239229
H          25.20743529444447    0.94764434928343   16.35812092318483
H          26.96897014986827    0.15842613746148   18.08933444292675
H          30.80187944300094    0.71679878120728    9.23702796874074
H          30.10531156759204    0.18082308696019   10.78772942360441
H          31.00844365700497    3.04015581585382   10.19988555250241
H          31.92465612876397    1.85275957036672   11.13475580093681
H          30.37213323889096    2.42865371031949   11.73515501292156
H          26.70890838413677    3.36041364053827    6.47711793960146
H          25.35311595052334    3.53160324094656    7.61970055035509
H          26.03728918877725    0.95306069078737    6.13142517060585
H          24.75125542153520    2.08461900404769    5.69222143914601
H          24.66681389279887    1.21306045019020    7.22406917252196
H          20.47511762825759    2.85865333793115   -0.16309721926538
H          21.37431225931398    1.37423946523539   -0.50776410890839
H          22.22097932469362    2.92351824109327   -0.41457641540145
H          11.59222486326350    9.62150589083902   12.64259820519507
H          12.00901266731588    9.22262796881614   14.31508246471736
H          10.61902731184935    8.45273117526007   13.53915955756539
H          30.92804114737827   -0.40009293500969   15.42034800854886
H          34.52173259225807   -2.14983784464308   21.35810853499305
H          35.07074285791371   -2.72193256866778   15.51286762268531
H          30.33441593486321    0.05789880105860   21.29664864608011
H          32.71930158448552   -0.84715723392383   10.95949722203528
H          34.33051652056822   -1.60820212028445   10.87884583017685
H          28.87456244316123   -3.37207371207564   24.20759168167182
H          29.01681036500203   -2.76500428359089   25.87545488767731
H          38.55525954153613   -2.32406659309874   18.75863194511129
H          40.35001898584915   -2.95568456900776   20.52069664885388
H          43.90227904128178   -3.59618622514655   23.08517184763990
H          46.20990563759611   -3.96730065899902   24.20715587301980
H          38.93327231269538   -5.05235199681846   30.52901180998041
H          40.35453268369601   -4.60017025104164   29.55416939541336
H          39.01639500493413   -7.34602002306201   29.48485147265449
H          40.50305115941570   -6.95154291642595   30.35778186930873
H          40.46822010162011   -6.85519253125611   28.59659479548447
H          34.51363977672777   -4.91723990602594   27.08128170198446
H          35.15769369755691   -4.64404687238316   25.44426034342730
H          34.80311795365471   -2.45985801584444   27.54722984239875
H          33.72485795708700   -2.76548593174326   26.17681198743401
H          35.38613532238404   -2.24436687778534   25.88770871459407
H          45.93953111309068   -4.59310222655755   26.73831925823555
H          29.47820301602430   -5.66376109898910   24.99324894307230
H          28.05333140483185   -5.07511470012389   25.86133315825971
H          29.63755066373552   -5.06413888937607   26.64590418612963
H          33.41742189034859    0.73905127144011    9.13449252883233
H          33.51618022724015   -0.94264312242994    8.59052652320643
H          34.98356513300960   -0.06691679862356    9.04494876294751
