260
 SCF done       -451.540470460786          0.000965100049
C           0.62200892824315    4.74768710334376   -4.18107231631759
C          -0.69154614442356    4.30723957439609   -3.92920504271504
C          -1.06706337059063    3.88675980797872   -2.63341195304799
C          -0.19289572149519    3.87322450255370   -1.54813698411548
C           1.13387375634563    4.26825882277195   -1.81319817832767
C           1.51061383910606    4.68513380101735   -3.11318303829581
C          -1.77535473963194    4.20227995566762   -4.85054578478170
C          -2.91357783600477    3.76326250733010   -4.27740190480778
S          -2.75150829672358    3.43469098426692   -2.58738637829508
C           2.23007659184296    4.29302828618944   -0.91906734758726
C           3.39420609970865    4.73249027182659   -1.47794093229896
S           3.19521603478413    5.13532390949115   -3.17177490081435
C           1.00559122785713    5.25727496826844   -5.48043848760227
C          -0.63189710808437    3.48199464592384   -0.22730912232779
C           0.30828183989861    6.09940209039626   -6.30231509684893
C           0.97991725747132    6.41399788814851   -7.49553331985324
C           2.19869671719083    5.80324232941177   -7.59145110921401
S           2.53760253680511    4.82925837323315   -6.19468156155477
C          -1.51174980128884    2.49337313706356    0.12307406111038
C          -1.74096050535416    2.39781842837967    1.50495415962436
C          -1.04617433833008    3.33148877027282    2.22235835878927
S          -0.08195121619092    4.33819199910366    1.19177280911184
S           3.30099603324492    5.94806410150565   -8.93522149161512
C           4.73500114375640    4.99434295691009   -8.30939972173718
S          -1.06349418050345    3.50233226946000    3.95795497368300
C          -0.06178016241395    5.02378902958493    4.16611825630521
C           4.65056589471988    4.84831609152595   -0.82306689135610
C           5.87469646477750    5.17015591901364   -1.37472190685506
C           6.89834924914245    5.14943931816077   -0.43915690392288
C           6.48426744323937    4.82526588188688    0.84644298761869
S           4.76394110191724    4.55954770972661    0.88486751599287
C           7.36117728699212    4.67453504690540    1.94885117332956
S           9.06983745250441    4.86689874136230    1.63389909220717
C           9.50898434518026    4.49817989413705    3.28445885900626
C           8.36704079518803    4.24534410092529    4.03782535696178
C           7.15385196067382    4.35436129307038    3.28629999914866
C           8.38394898374883    3.89171266855456    5.44508656250877
C           7.07297744661083    3.65451698536560    6.03801917105758
C           5.85797291371603    3.80696024061041    5.29800670074953
C           5.84384634450324    4.16227637602560    3.88282570157513
C           6.86479345931211    3.27657467166799    7.34189902710752
S           5.17287134124185    3.13598216842646    7.67326359103588
C           4.73767273785299    3.57522889596069    6.05769803963579
C          10.88999765912953    4.50191747101504    3.60060416013621
C          11.90286377490337    4.75912900306426    2.68503208719683
C          13.18105678955905    4.70126298634565    3.22169666173495
S          11.55935037246005    4.18524216564754    5.17559531480213
O           9.41804411058082    3.80047605352549    6.10397208421296
O           4.79403437988959    4.28019823407886    3.25355834423956
C           7.85838057900262    3.03214181803981    8.41983200981098
C           8.30569465390506    4.34716265478770    9.06513396544441
C           3.30546551000510    3.63320587961981    5.66454371549707
C           2.87015678152983    2.35117463327690    4.94900289322153
C          13.17148006103077    4.40538529275095    4.57029184999882
C          -0.04408739204565    5.42299694505371    5.62782185418829
C           5.86435125012777    5.04547008697679   -9.31837898478934
C          15.66183250198645    3.51724451860321    8.79430693614088
C          15.42632338858473    3.82352792848939    7.43760331595829
C          16.50786829484861    3.97854213421361    6.53664349701705
C          17.84043153867476    3.85197068125553    6.91804041377142
C          18.07712465767958    3.59193737584046    8.28554593016211
C          16.99247821328814    3.43356471405618    9.18365360198130
C          14.17856775799681    4.00242924578574    6.80023444864074
C          14.26859158620942    4.23879619968398    5.45852374175284
S          15.93522508710382    4.28844020579996    4.91644469519711
C          19.32108102371777    3.45337397887556    8.94301499070620
C          19.21838357656842    3.15732351636066   10.27182953200137
S          17.54869056413769    3.06545481510970   10.79478327479646
C          14.56047678340507    3.28844281502020    9.70338020444809
C          18.91508166641099    3.95129506823759    5.95543375927358
C          13.39741620560151    2.60305952664078    9.47899305820172
C          12.52540276533085    2.58786635224819   10.57944733771441
C          13.02032553712379    3.27112748173270   11.65483396572871
S          14.58946666824292    3.93583958017041   11.32329059356311
C          19.02147827602216    4.78558004462557    4.87543143223648
C          20.18465029657410    4.58694986143900    4.11411565006677
C          20.97084100576838    3.57978138252535    4.60061528727444
S          20.28467746403650    2.87022884200706    6.02632776814347
S          12.20434340407416    3.47892724969883   13.18221755295940
C          13.47361928416582    4.39647698066057   14.13242156046731
S          22.49930165697289    3.06626992827386    3.93527774460079
C          22.83340547271175    1.57512156069615    4.94871676310101
C          20.28909338299721    2.91441283369163   11.17327420692552
C          20.20672688750130    2.55716456148716   12.50495868681814
C          21.45314256918908    2.35751252368627   13.07768965002664
C          22.51521982588236    2.56470088920566   12.20700783796802
S          21.93472629942906    3.02233588913696   10.63059074327657
C          23.87505604334118    2.39812699811508   12.56690605148604
S          24.19707326018120    1.76098471205233   14.16135068433251
C          25.92879667321430    1.81890857766357   13.93380356308163
C          26.22994568630973    2.34514021686511   12.68229146594111
C          25.06946620464269    2.65652648965043   11.90453486091751
C          27.57984867181746    2.58397344638818   12.20458401643584
C          27.65946807108152    3.23220483632734   10.89884105273298
C          26.49975962189324    3.51222122946237   10.10805207657645
C          25.15078489224140    3.17591457434833   10.55149367290658
C          28.82273835115257    3.66529508063367   10.31203329561968
S          28.49932184641047    4.41446257811561    8.78654660831492
C          26.79498042115351    4.15406921516732    8.93082007125870
C          26.72780226343536    1.32277780177259   14.99253686823636
C          26.21109401625652    0.82968773077140   16.18409150312801
C          27.17062629516245    0.33863687907878   17.05497075106102
S          28.46317175388958    1.17966591690893   14.97193458691103
O          28.58499154507344    2.28893258042557   12.84829910794896
O          24.16928752209997    3.32151223790963    9.82581225413162
C          30.22050070651811    3.55417437555296   10.80406391612151
C          30.80370618342719    2.16883082167628   10.51149647025637
C          25.87766440438443    4.59544300522128    7.84855540328292
C          25.55621153605619    3.44182869660964    6.89474760560446
C          28.44967724491091    0.44014611446278   16.54312792842039
C          24.09861101951130    0.89861868606482    4.46123354254655
C          12.97710755155964    4.64719005991417   15.54198077571567
C          33.32278902338150   -0.45033620640670   17.23090648907894
C          31.93165354107311   -0.41194077210243   17.46716809379810
C          31.39913874772595   -0.92501721594509   18.67589670533383
C          32.17895189803760   -1.48407929767651   19.68332113300999
C          33.56690164882357   -1.54641421371925   19.43637323553638
C          34.10072364234626   -1.03315631515922   18.22836416103425
C          30.91619008850229    0.09206860076643   16.62178485871362
C          29.66110147383928    0.01802449296980   17.15311470560459
S          29.66900716563894   -0.71489425460760   18.74492889319372
C          34.57524922578011   -2.08486187508917   20.26997525877205
C          35.83794512635162   -1.96431785243352   19.76125118453495
S          35.83663826494531   -1.18743620973505   18.19404706299586
C          33.92375575742027    0.09682110013814   16.03553804103934
C          31.58072664523895   -1.94368348676761   20.91758035269795
C          35.00873755880001   -0.36679755980814   15.33972388199149
C          35.35992665613778    0.42464174067634   14.23516170169957
C          34.55022339952829    1.51625770493427   14.08693243292134
S          33.32844160556001    1.57237677157477   15.31539673104801
C          30.38493958367605   -2.58496088286417   21.09456541574339
C          30.06561867572448   -2.83952090191292   22.43811957090665
C          31.01485167443698   -2.37691999822768   23.30558258595378
S          32.33437960453512   -1.62908683815149   22.46198834684420
S          34.67401071042170    2.71079214016534   12.82261064414866
C          33.31828907016245    3.85340421260177   13.28794280992839
S          30.95293707835139   -2.51724848706441   25.04328144053235
C          32.50912246793882   -1.67332224023699   25.51755611079401
C          37.06406466998628   -2.39345052238795   20.34324320189264
C          37.23725805040088   -3.02969229887742   21.55949473796163
C          38.56859750717904   -3.30513016340273   21.82530795836600
C          39.44417798727146   -2.88791302506672   20.83034911585047
S          38.57115934337732   -2.13394590629909   19.52708135215371
C          40.84888899053804   -3.06286481908097   20.89621300742436
S          41.48179094508692   -3.88191735072531   22.30384919808172
C          43.13588183224799   -3.73728890118655   21.75991529856533
C          43.18143486843665   -3.07575606413596   20.54044904457170
C          41.88949850494259   -2.70119166024469   20.04915330606210
C          44.40794197659443   -2.78136905078463   19.81612779822271
C          44.21998128380942   -2.05891428992222   18.56083015795464
C          42.92649528756171   -1.69370900875351   18.06832463987716
C          41.69817104213418   -2.00664324362285   18.78986178545393
C          45.23942470887377   -1.65247502562530   17.73574835249677
S          44.61378724175114   -0.84157652631663   16.34096841332910
C          42.97654874036812   -1.03739880322655   16.86319289969500
C          44.13423310126466   -4.29244533300707   22.60587452595440
C          43.86108963174477   -4.92817933927197   23.80474102782830
C          44.99934312563770   -5.39688160335886   24.46291598024861
S          45.85020051172573   -4.28387752220668   22.30131697250777
O          45.51972410979845   -3.11196913716801   20.21837608454824
O          40.58958514290525   -1.69590762043534   18.35867936072229
C          46.70344105571392   -1.86219868636957   17.87912657011643
C          47.10437670529150   -3.25295486252548   17.37841157731422
C          41.86239943325806   -0.47947685549416   16.05372110870227
C          41.42969400839679    0.88785080766149   16.59142101641012
C          46.13968010048831   -5.11798333494823   23.76636210746881
C          32.65156645003432   -1.67378651299204   27.02616840261952
C          33.30199195336399    5.03362853481446   12.33750428189540
H          -1.68546080550341    4.42588054074116   -5.89751130551117
H          -3.86456215668341    3.59285565512631   -4.74290972164838
H           2.18629998297752    3.97656513698609    0.10665502678416
H          -0.64430693219781    6.52052091754998   -6.03448492485226
H           0.59263737599045    7.06775100001487   -8.25503233484093
H          -1.95767659360463    1.82534248215743   -0.59106892625777
H          -2.38969136131941    1.67409368932447    1.96247921612307
H           4.39644912053045    3.97118747175150   -8.14191919740066
H           5.02878881047215    5.43996604348562   -7.35829802908351
H          -0.51750454722663    5.79875383696753    3.54914245083354
H           0.94110560647033    4.80741994227621    3.79594471882388
H           6.00909601281655    5.39917053479082   -2.41745126842438
H           7.92810728363306    5.35689373846084   -0.67431077509345
H          11.69796376545642    4.97881686652973    1.65128688887452
H          14.08354385346062    4.86697642961687    2.65970706184491
H           8.73374976079576    2.54289262384918    7.98813272360527
H           7.41783905307766    2.38212690783857    9.17853921860903
H           8.80723069649347    4.96729187043817    8.32724925048145
H           9.00090162118893    4.14286191309394    9.87489680013950
H           7.45087059985266    4.88880852885697    9.46470220743025
H           3.16406458799995    4.47781356494874    4.98719307662308
H           2.69634249062769    3.78013047386913    6.55866517020937
H           3.41360353650738    2.24839822502400    4.01364708571426
H           1.80618264813085    2.39028525129352    4.73079493817416
H           3.06485978956324    1.48028509941924    5.57125213398381
H          -1.04900647956400    5.65827773167067    5.97045134114306
H           0.58625546945255    6.29906661244580    5.76200846812454
H           0.34592786225179    4.61303435423918    6.23922226137178
H           5.54788629370354    4.61793745144795  -10.26688611292106
H           6.71495168806560    4.47927754146386   -8.94558253911398
H           6.17573200044581    6.07318574747129   -9.49002621936621
H          13.23361241096620    3.97862215218685    7.31107425872296
H          20.27814128297923    3.57371656673531    8.46988696498169
H          13.19083870716212    2.08362632685678    8.56071270870904
H          11.57170140429674    2.09342952990182   10.58882401097593
H          18.29813711240969    5.54831149760204    4.65114122222640
H          20.44073755584760    5.15698095746781    3.24031590237083
H          13.66137072351200    5.33176337160132   13.60380015817586
H          14.38000088814544    3.78988677750494   14.13021974503861
H          21.96878872988506    0.91795496943474    4.85014052143489
H          22.92829251270275    1.90004123304468    5.98547903702646
H          19.27270062988665    2.44190311401747   13.02653473474984
H          21.60132686677973    2.07102261278084   14.10460877360984
H          25.15571453260512    0.83007858918605   16.39552293265261
H          26.95532754939178   -0.08274158204814   18.02128931165253
H          30.22328007601955    3.71300636126028   11.88451231173979
H          30.83146467452845    4.32086984795124   10.32349557919649
H          30.24375322465680    1.41210664519142   11.05422453272054
H          31.84204256568324    2.12717784454795   10.82953991213746
H          30.75722523036440    1.95064849672017    9.44666172375343
H          26.33828884925859    5.41400523206263    7.29202377099168
H          24.94498237658666    4.94298402543057    8.29768299566486
H          26.46881099887976    3.04107210812150    6.45758650438479
H          24.90995158052407    3.79754347143020    6.09675880140381
H          25.04488149073826    2.65065945654310    7.43709838366246
H          23.99011348626850    0.58881515612846    3.42444458617859
H          24.30142671313093    0.02039071847174    5.06986418807059
H          24.94583543177169    1.57603574485158    4.53325084257290
H          12.06095322621689    5.23288493184096   15.52489000334413
H          13.73101764960109    5.19302343705403   16.10476381842049
H          12.77544884987174    3.70604963817160   16.04813882295890
H          31.08197206592315    0.48933995153015   15.63756239625453
H          34.37677290465580   -2.55928917753460   21.21229287661267
H          35.52172938639338   -1.27738245132688   15.58933482910935
H          36.17446284281336    0.20650698345823   13.56968230713457
H          29.76369956952841   -2.90141179436484   20.27665623324254
H          29.17386392278042   -3.34222025392416   22.76357853297892
H          33.50097445686382    4.17342334734805   14.31419324726059
H          32.38620718156294    3.28863393210137   13.24403505438929
H          32.46253519093617   -0.65814462260418   25.12187983441619
H          33.32888471879377   -2.21168795247681   25.04034268310227
H          36.43090019058867   -3.28283948741480   22.22375874229636
H          38.91031805749432   -3.79609179102432   22.72031222275411
H          42.86012533589647   -5.04485531679530   24.18253940266384
H          44.97489383167200   -5.91499080989431   25.40507607492341
H          46.97106229784431   -1.78177972605438   18.93438104123344
H          47.23768250501673   -1.09847689403111   17.31029810049577
H          46.62315008587863   -4.01547501632227   17.98486457804072
H          48.18082752453017   -3.37690057875804   17.45709422558357
H          46.81020090909617   -3.38621240779284   16.33923381377665
H          41.00998981216625   -1.15923375046988   16.10911923108138
H          42.18134330934364   -0.38195262082828   15.01409115710970
H          41.04773431544388    0.78156227383298   17.60309358669075
H          40.64058895986535    1.29645926981192   15.96630185576753
H          42.26846034269344    1.58106926279342   16.59782276753714
H          47.14613717534643   -5.36412007009474   24.04360601564111
H          31.81624517673477   -1.15249674670152   27.48763321359518
H          33.57527585087751   -1.17319082968375   27.30773546762892
H          32.67509011872240   -2.69233560466857   27.40653039254812
H          34.23158344056804    5.59328584866603   12.40993427019063
H          32.47474082330227    5.69454137151779   12.58589766738045
H          33.18514299915824    4.69425285850000   11.31117304720429
