260
 SCF done       -476.863213174689          0.000549194207
C           8.74339722277304   -1.71312423023520   -7.58414262568266
C           7.68184548630871   -2.44464217532956   -8.15137176645343
C           6.52267929206324   -2.72664146582526   -7.39034640502714
C           6.34695485523358   -2.29594908714516   -6.07855825183368
C           7.42528202260553   -1.60073838963192   -5.49746934106967
C           8.59120922244624   -1.32877488940728   -6.25390241457852
C           7.59133691465130   -3.00184529080912   -9.46062592001595
C           6.42523431587813   -3.64162642244288   -9.68190677618699
S           5.35628987448813   -3.62167459282941   -8.32479205911465
C           7.52703701479602   -1.10725280329665   -4.17537660809341
C           8.69417323282002   -0.45008965020556   -3.91745250228661
S           9.75234219426960   -0.42789718594796   -5.31451380492547
C           9.92721361598662   -1.34490678491154   -8.33250304007636
C           5.13023372391095   -2.53061621441552   -5.33084902129192
C          11.21740317633460   -1.27843147766111   -7.88704624026945
C          12.10911847510377   -0.79288554903411   -8.85933020224088
C          11.53143704603665   -0.47826393273761  -10.06001351563021
S           9.82774699257860   -0.79777232711451   -9.98935580232755
C           4.47749515006624   -1.66723428263580   -4.49479058525093
C           3.32424566722668   -2.23177691720290   -3.92481875386497
C           3.08364662591248   -3.52991117147033   -4.28818108227800
S           4.30983541892973   -4.07013560354789   -5.39022994766855
S          12.18298698624142    0.16851493283020  -11.54646496417501
C          13.96900531589741   -0.23500944228826  -11.39814365012859
S           1.80122302934952   -4.63089575291703   -3.84726508212051
C           1.35575849992585   -4.02158507855616   -2.16971011113170
C           9.05589377687296    0.16935996564269   -2.68947180468397
C          10.25367014382745    0.76185725615325   -2.34394258803538
C          10.23462378767569    1.27772908044803   -1.05604606558228
C           9.02641272729997    1.10321443880878   -0.39372954423640
S           7.89032289403459    0.26043603849675   -1.40650559567619
C           8.75978938789763    1.57767310052720    0.91489038443277
S          10.06922081181139    2.37190417680044    1.75617166824849
C           9.07794136377760    2.72579320001712    3.15015685273773
C           7.78975144645123    2.24088269082540    2.95748607542789
C           7.61617355855190    1.57055808882624    1.70621310698811
C           6.70654368510476    2.40704093107141    3.91096941392439
C           5.47446733123012    1.70807398832203    3.56779453923614
C           5.30920847811006    1.00966907200868    2.32995229143346
C           6.36527541814808    0.93677140647698    1.32731727211822
C           4.37464692283272    1.62131808618002    4.38576532007555
S           3.12818596242445    0.68620061743173    3.63292531813743
C           4.08288880288098    0.40041120926525    2.21853742872961
C           9.69894847506551    3.39260538006124    4.23602236889693
C          11.06167764434257    3.64753117243115    4.31931162770517
C          11.44230240619133    4.30887189506002    5.47802008643384
S           8.87288851427078    4.00739532031374    5.63838162506198
O           6.80614060105768    3.09193823514215    4.92629022433649
O           6.20504389164002    0.35736478640599    0.25491757412239
C           4.16194335784359    2.21356777503441    5.73126981440098
C           3.74291853832262    3.68278244443718    5.63180593746518
C           3.53001903857851   -0.38867904576754    1.08747900305562
C           2.99992984444490    0.52952470180620   -0.01775223746132
C           8.63141280310815    6.88183542439891   10.37914628250278
C           9.54320266305512    6.30198216741529    9.47097285215009
C          10.93849598840138    6.37547413976678    9.70934840559149
C          11.49232584282023    6.99628576905739   10.82516134448234
C          10.58055737816797    7.58433649547966   11.72783234384888
C           9.18568629800437    7.52911245170515   11.47971807582952
C           9.25530248523026    5.66628483711926    8.24198692076155
C          10.36105690005360    5.26198915583805    7.55127884690455
S          11.84008709732867    5.64962124452166    8.40486031336662
C          10.86812710199952    8.23276066250148   12.94899540691961
C           9.76599350725147    8.69151236970052   13.61129099954868
S           8.28786160713175    8.31495704636830   12.75235871152454
C           7.19871980442869    6.80502233469459   10.19203471616491
C          12.92342455742289    7.02962351506248   11.03660108514545
C           6.25893966020343    7.74859657305790   10.50397866345929
C           4.94512331700192    7.31569532251592   10.25834398684076
C           4.84593680123871    6.04538541500511    9.75673241663711
S           6.42856980629994    5.35962960023531    9.58137460297176
C          13.83384852207330    6.05248064193351   10.73836826975369
C          15.14929079259015    6.40753877584621   11.07946390499051
C          15.28315900943123    7.66191403344928   11.61235401628438
S          13.73125705313991    8.42797362516847   11.70304889829585
S           3.46582913223679    5.07059632600047    9.31193355838415
C           2.19037327150990    6.34722594756226    8.96236308928408
S          16.67721979921106    8.52310846734288   12.21895785176738
C          18.03425865112079    7.78667664766248   11.22152243107514
C          10.36758139552804    4.59347644847990    6.29674580794577
C           9.77934112775833    9.42216200843036   14.82992137613079
C           8.72047486770771    9.96205837767026   15.53262400757372
C           9.13574805465319   10.65101574155123   16.66309399791989
C          10.51237330625732   10.65374289895476   16.85074195999672
S          11.30449868222250    9.76127784845708   15.58554962893002
C          11.17249257386811   11.30634285962506   17.92148244721180
S          10.17481172409045   12.16216265284619   19.07262991102240
C          11.55116938967759   12.67869744702893   20.01557511045344
C          12.72693041027090   12.19678741052333   19.45263257656410
C          12.51509230404073   11.43779089085199   18.25962447134741
C          14.05082947662885   12.42180640290880   20.00891358295041
C          15.15293433994593   11.99672992326225   19.15542154734818
C          14.94229287316422   11.27000559047739   17.94106796198028
C          13.61258860506963   10.88866442003913   17.48110385149329
C          16.47706494515067   12.27398657185631   19.39263926385892
S          17.46823208114225   11.64613341087029   18.12055085229170
C          16.10742480956949   11.00648772452239   17.26311338221434
C          11.29853270396423   13.52138534480676   21.12738945743989
C          10.05953816329702   14.07031210671193   21.42934533502983
C          10.06459238487206   14.89985458401470   22.54233670446104
S          12.49397705036830   14.03677068403578   22.27997214915897
O          14.23702555652900   12.93141942836886   21.11174136844547
O          13.44651078357754   10.17218235536898   16.49700657577903
C          17.09090130217808   12.99052361896585   20.53984458870783
C          17.28822951071596   12.05796056026567   21.73840555472758
C          16.30287792811293   10.27914466605933   15.98286100705629
C          16.33581033618340    8.76452160106228   16.20412976346604
C          14.23227024529898   16.77225830879123   26.75116670893034
C          13.09189859421869   16.58040421683965   25.94476503049295
C          11.91680361864548   17.33759432944637   26.17276388808417
C          11.81763024737165   18.30515790654493   27.16936685839311
C          12.94570896005189   18.46886363426114   28.00108655162022
C          14.11232999080607   17.69315754485478   27.78415351752698
C          12.93782638719141   15.67715291323945   24.86902561394277
C          11.71896105338264   15.74327194802388   24.25891837646749
S          10.67534915900633   16.92923918979158   25.01710726175742
C          13.09846511093379   19.34046625923575   29.10511533750607
C          14.32384107176345   19.26631280677510   29.70169016897402
S          15.36535605578141   18.09137460511324   28.92627200222571
C          15.45201574111924   16.03976594646931   26.48338403802880
C          10.62581160083985   19.11430031392611   27.30935667816906
C          16.01654178015367   15.77173417129439   25.26692287153177
C          17.19578389259346   15.01599719244027   25.37230055041003
C          17.54250115869270   14.67292730771939   26.65182549923884
S          16.38992853269607   15.32829750882238   27.77126607662689
C           9.32552240088157   18.73490175100588   27.11677490401340
C           8.42256557732766   19.80400610942794   27.23831283252647
C           8.99837186559743   21.01182524958622   27.52895845702955
S          10.71705948815887   20.82231963529085   27.65997951943581
S          18.88977108817043   13.73887408055120   27.25541778325149
C          19.14914382015509   12.55669403753979   25.86891042729261
S           8.30554945868202   22.60470821853017   27.73563502752204
C           6.74410245644784   22.23285078683929   28.61921003960481
C          11.31102079471071   14.98344664855287   23.12848948473032
C          14.79093827512590   20.01822419495468   30.81541557323610
C          15.99889902554472   19.91568532229775   31.46831383244950
C          16.13904636875767   20.81290313469741   32.52763928824486
C          15.04056117888497   21.62275840447774   32.70633065251298
S          13.80824914061789   21.26115869088174   31.52376362827319
C          14.82313049190088   22.71020330667483   33.60569464991166
S          13.77608608493207   23.98737154370880   33.05777098768407
C          14.01954130564190   24.92396119373921   34.50895860433221
C          14.87619519664032   24.25156199487454   35.37346986123708
C          15.32195620640303   22.98858744159548   34.86618917335445
C          15.28193572464690   24.76272240060857   36.67346585505494
C          16.18348825368615   23.89059376987330   37.42008622407459
C          16.56485825700975   22.59353191090365   36.95090827520834
C          16.11320446216010   22.04838971174500   35.67017303101571
C          16.75841415791908   24.21618658159301   38.62358823631323
S          17.76911784632124   22.93097274582029   39.18870660938512
C          17.42215478368757   21.94815527957090   37.80644423647201
C          13.34005997656323   26.17144046379050   34.58266861692238
C          12.51056492374404   26.65282552756349   33.58470605834345
C          11.95467873319630   27.90103316328789   33.87096406580034
C          12.36076756605388   28.37132106296609   35.08616881681231
S          13.42205814280509   27.30628828716046   35.90238355303504
O          14.90460707629512   25.84301432994576   37.11728484877999
O          16.36251867192829   20.90610886965572   35.31752470288257
C          16.58357889417422   25.44121286951679   39.44573280725518
C          15.31739591977632   25.34294632139159   40.30172318358650
C          18.00296124679688   20.58508744472112   37.70126883671286
C          17.02696137791646   19.54037449203080   38.25054778550324
F          13.42371231057463   -0.65945677894680   -8.59480288768646
F           2.53312460275413   -1.52504865390968   -3.09306567198477
F           3.88816898777114    8.11332282496960   10.50700949414175
F          16.17668179062098    5.55582433161458   10.89721007065849
F           7.09794333644708   19.62539213888776   27.08211728851127
F          17.91229371187231   14.67250909553062   24.28414540447022
C           0.56740322439117   -5.09655006911523   -1.44917000155313
C          14.63312135048549   -0.00652105533555  -12.74106318777509
C           1.02802848855998    5.69750126069408    8.23881405269239
C          19.26339295040811    8.66530178131341   11.33769074287880
C           6.99477959807375   21.61121974309472   29.97785648185761
C          19.93726394686228   11.36517813387842   26.37363150886548
H           8.37219864870824   -2.93284874759233  -10.19438906680726
H           6.11064078770184   -4.14504592698537  -10.57489901517279
H           6.77714753112197   -1.25027157040575   -3.41975725781693
H          11.54646869932722   -1.58396502622378   -6.91163230200290
H           4.76327055974908   -0.64614469504819   -4.32341590179226
H          14.04149818743961   -1.27729140783100  -11.09097298340022
H          14.39743263106424    0.40706631348372  -10.63026388810571
H           0.76960622280382   -3.11125805192813   -2.28561051046628
H           2.28744777958838   -3.79751051772449   -1.65212443737232
H          11.10061991178428    0.81166933474100   -3.00558701963577
H          11.07072548024751    1.77930386521354   -0.60005092577933
H          11.74996085209194    3.34258208197781    3.54995947634500
H          12.45533670961079    4.58176247942117    5.71675635855500
H           5.09805356642829    2.16344138137077    6.29124186408727
H           3.39370458624429    1.64830996537114    6.26221482669940
H           4.52926786267964    4.25810089429520    5.15109481124829
H           3.58513735930154    4.07867611776163    6.63105189290319
H           2.82418913000493    3.78272480643398    5.05690528480188
H           2.72525576676918   -1.03092663288577    1.45064106527169
H           4.32664153414288   -1.00765279758862    0.66957632021730
H           2.22247445189569    1.18520737000135    0.36824840419782
H           2.58763935318862   -0.06631564874560   -0.82686883649787
H           3.81099625649856    1.13445187049007   -0.41346042324294
H           8.26624456235296    5.52236401978455    7.84915977583239
H          11.85454796670860    8.36266338901512   13.35253772718121
H           6.47635559285735    8.73384029505650   10.87133419316394
H          13.58778047855170    5.08648229164723   10.33929643566785
H           2.66161930640126    7.11415732244968    8.34937289069512
H           1.87453296653862    6.77577223138708    9.91203238125267
H          17.68091172279892    7.73035020693439   10.19281416227349
H          18.22675465612573    6.78416032957960   11.60033085235435
H           7.69391719229422    9.85861520540253   15.22738321840413
H           8.46390650724176   11.14805896150291   17.34156093981947
H           9.18536010034539   13.87363797025231   20.83301599905742
H           9.19991911525045   15.41974636370995   22.91595462930724
H          16.42676012644068   13.80214938626541   20.84397543484232
H          18.05373808208779   13.40675420133018   20.23782075232270
H          16.32494596276062   11.68708736381818   22.07817896239450
H          17.75691671025359   12.60744319117565   22.54965290847541
H          17.92127842655850   11.21470732157236   21.47006372153928
H          17.23664273189125   10.60131015432354   15.51843246043223
H          15.47141489990096   10.50906101568310   15.31363302229302
H          17.13099318691761    8.49348755379750   16.89546789743348
H          16.50656358128539    8.26520208180718   15.25474843823216
H          15.38363226253090    8.43020202006022   16.60643759699253
H          13.68958711443335   14.97550729884741   24.55898388350746
H          12.33067782246260   19.99897524407316   29.46750282697839
H          15.64759571142327   16.13672314458122   24.32653248854939
H           9.00258310931147   17.73076600539059   26.91562048641791
H          19.68410520309544   13.07871595528450   25.07673321114018
H          18.16280280256656   12.25836372245702   25.51533639995723
H           6.13302893321661   21.59522947254803   27.98403911285531
H           6.26746309874690   23.20835113077250   28.71127780124097
H          16.75315242878467   19.20609210721365   31.17714637895341
H          17.01633387481188   20.87339467878247   33.14231198256211
H          12.31959476493035   26.10706886893290   32.67685268588907
H          11.28809949758535   28.42467534705457   33.20909185296367
H          12.08616974197213   29.29952187368841   35.54814804581945
H          16.48818967251136   26.30254077884436   38.78186330463019
H          17.45456502655459   25.57458687743516   40.09053145584419
H          14.44371551834981   25.27655525246101   39.65919712464673
H          15.22298243291518   26.22853889463040   40.92387494602450
H          15.35537317334538   24.46503488314444   40.94350603149316
H          18.94070584147265   20.54257613874399   38.25897371487083
H          18.19465219988351   20.36258213881070   36.64997791746942
H          16.77408202250050   19.75916030117956   39.28600222287857
H          17.47586141910786   18.55226450661535   38.20034733103944
H          16.11778813669525   19.53898562383327   37.65542548874506
H          -0.34085852507398   -5.33534365511066   -1.99748289771636
H           0.29364562900537   -4.74703882736421   -0.45608525850942
H           1.15935536078342   -6.00354156977944   -1.35092961541235
H          14.18492284786267   -0.64062324245720  -13.50266001157098
H          15.69283779299194   -0.24065003456034  -12.66917323352398
H          14.52507296164735    1.03109295531201  -13.04872546239271
H           1.35394760719140    5.27213674242364    7.29249202027067
H           0.26007471562067    6.44198968921677    8.04162013775544
H           0.59668931154208    4.90405295821647    8.84488365054128
H          19.05254803766060    9.66853367041462   10.97425525389954
H          20.07256397793281    8.24153645105430   10.74711970161680
H          19.58695340450748    8.73406857503887   12.37384753529595
H           7.47337178119408   20.63926324425226   29.87591164995721
H           6.04843656057545   21.47424069632541   30.49672494149227
H           7.63544673546634   22.25207215667884   30.57975659499682
H          20.90811570342522   11.68093738388690   26.74732381965255
H          20.08835028952057   10.65644556692356   25.56235545081158
H          19.40239579447839   10.86718003241589   27.17953423665222
