203
 SCF done       -352.160525704900          0.000594567278
C          -4.25558794947720   -7.57839476554766    5.80507213514792
C          -3.64471674789421   -6.41631398576355    6.32911691583904
C          -3.85022203999965   -5.13729356953516    5.81405712630981
C          -4.72908256187208   -5.04274709579624    4.71672624672417
C          -5.33947488579693   -6.20763363148988    4.19328295776005
C          -5.13348357934114   -7.48339384849797    4.70959722698584
C          -5.16790311902344   -3.87329936656123    4.04704578023961
C          -6.06272909650427   -4.11492597970225    3.04655438504352
S          -6.41496324160051   -5.82095271179787    2.87717389808385
C          -3.81081398588799   -8.75453035634134    6.47850784160430
C          -2.92244461020664   -8.49776308102506    7.45866437293350
S          -2.56548183008717   -6.81605585120779    7.64008781369040
C          -5.80471761310653   -8.63115332455800    4.13632694445238
C          -3.17843346215864   -3.98783115430416    6.37981839121194
C          -6.68680425656541   -3.15838934326458    2.19179821846368
C          -6.02536306166254   -8.91105773806525    2.81603277241497
C          -6.74911981756599  -10.09496082170408    2.59865568586600
C          -7.10803672020205  -10.71838557905581    3.76025055002267
S          -6.53405420118567   -9.85118460473809    5.14986893753713
C          -2.90017212966661   -3.73719855717236    7.69487552349202
C          -2.18895188765081   -2.54378388818419    7.91545187838177
C          -1.90389049870143   -1.88072117370605    6.75661167436681
S          -2.52338945057130   -2.71842832013086    5.37050933172805
S          -7.88002998328694   -3.63559958407628    1.02298859798744
C          -8.09501143420912   -2.00120981223468    0.46392917379470
C          -7.26320816684586   -1.13530941563784    1.17264694204332
C          -6.48257816656939   -1.80555896182394    2.14028097824919
S          -8.03031328284618  -12.19468928336128    3.86890660650075
C          -8.05609018788559  -12.46037599388087    5.68209887014237
S          -1.06158597476970   -0.37504712833639    6.48745000258150
C          -0.49658859753542    0.03330947422451    8.18254887184438
C          -7.10431332394570    0.31545598193224    0.98209517036934
O          -7.51034762483647    0.97092391141498    0.05137065621626
O          -6.41512600525009    0.85264717453089    2.00166030968692
C          -6.13450444309024    2.24856933956224    1.92395684989527
C          -4.90614367346209    2.52280737421805    1.06772594278373
C          -8.79010911341550  -13.74766587714371    5.99864412032036
C           0.34008368594405    1.29694805830300    8.13711887895261
C          -9.07239319849804   -1.80211108149396   -0.55243782204332
C          -9.58869168097316   -0.65715423156961   -1.12095467067979
C         -10.58096979537071   -0.90453391449624   -2.07040758232634
C         -10.84486843437855   -2.24266037520829   -2.25763313607906
S          -9.84140696792148   -3.21866225210015   -1.23017416181786
C         -13.00068021329126   -4.54487154153446   -4.19082795815144
C         -13.58863918670724   -3.38865312951241   -4.75992778990050
C         -14.61817289405612   -3.43502717306965   -5.69355241819990
C         -15.03908181287874   -4.72151834808126   -6.09007904886774
C         -14.46917550067316   -5.87810971094968   -5.50455490876834
C         -13.46230014465998   -5.83332191076267   -4.54208915634390
C         -16.00745429076205   -5.04661430245466   -7.06937481029270
C         -16.21885771379054   -6.38675800861316   -7.21308588237467
S         -15.21407797243166   -7.32559675797026   -6.13275062615364
C         -11.96550877791978   -4.20610197137230   -3.28941521575251
C         -11.78636989456313   -2.86413727510403   -3.12208049102566
S         -12.88435292358183   -1.92884681419837   -4.11186807864722
C         -12.92379564638533   -7.03392721980035   -3.94405857642252
C         -15.23079025503844   -2.22461948873904   -6.19474368613633
C         -17.10164001663803   -7.01229246264686   -8.14411645159056
C         -12.73162018272757   -8.26400390971000   -4.51776475283267
C         -12.14758419895404   -9.21054500051162   -3.66188281784757
C         -11.89724844518084   -8.71516373357367   -2.41195362500501
S         -12.41686631888822   -7.06735622446068   -2.27174084577401
C         -14.63730299269556   -1.02985717225657   -6.49929065886919
C         -15.53858664979764   -0.02995628626454   -6.89918439971129
C         -16.83865244307366   -0.45161769560343   -6.88701545705550
S         -16.96289935425111   -2.11098156646342   -6.39414798333242
S         -17.53905369543313   -8.69364920579208   -8.02499770245586
C         -18.53774019394195   -8.60781777161349   -9.45123432278560
C         -18.50796534198380   -7.31787207267548   -9.97961904341824
C         -17.70661659140742   -6.43382033025085   -9.22583925382923
S         -11.15008322187805   -9.57734416096518   -1.09383044242878
C         -10.65923840930478   -8.18966622081014    0.00480800636791
S         -18.22199332928531    0.51386534373586   -7.33059797736333
C         -19.59054944342139   -0.65238578683160   -6.97461448697812
C         -19.18754709629169   -6.87057407743243  -11.19305808096463
O         -19.70371492840310   -7.58858837580723  -12.02416350186306
O         -19.17202875975373   -5.53447580474831  -11.30455563269191
C         -19.78086157922058   -4.98307814984413  -12.47110167803511
C         -18.85037335298786   -5.04752044226043  -13.67369488581612
C          -9.62193661724915   -8.66604617311998    1.00080640408098
C         -20.91979705064740    0.01519289420752   -7.26360102409984
C         -19.24596662994273   -9.77638990698423   -9.83588617504252
C         -19.31246869435254  -10.94754385030271   -9.09727543313599
C         -20.09065702866226  -11.93998350218390   -9.68253869961078
C         -20.62924734944209  -11.54734475954929  -10.88958183466554
S         -20.16570605994466   -9.92460482194740  -11.30317543524964
C         -22.68030051259957  -12.77839474884533  -13.70642610192450
C         -22.87432934604404  -13.96649919226925  -12.96012733764312
C         -23.61673156630376  -15.04916735146380  -13.42492159480983
C         -24.19096712611795  -14.90522774870757  -14.70671989307430
C         -23.98085253590843  -13.72300266220488  -15.45764797456373
C         -23.22904502503487  -12.64522333251701  -14.99971730873187
C         -24.99569614624191  -15.83355253272786  -15.41145155033003
C         -25.35277038522077  -15.42093709081928  -16.66023032344102
S         -24.73637235304428  -13.82526851814915  -17.02715277617560
C         -21.90156024690158  -11.83697179043059  -12.99678291414184
C         -21.45634044341794  -12.27916223617217  -11.78528810448389
S         -22.02433953741351  -13.89799246408887  -11.43562335890667
C         -23.00609913473898  -11.47494309477254  -15.81872862482702
C         -23.76707185260665  -16.25007253607150  -12.63371167771831
C         -26.12644131946231  -16.13631406206113  -17.61841069574643
C         -23.86630851893772  -10.87077880410863  -16.69693547865484
C         -23.32467930503683   -9.75121849065704  -17.34797696064070
C         -22.03125081380364   -9.49971185666530  -16.98250883494320
S         -21.46374140295796  -10.65581104014615  -15.82287231131501
C         -23.89791315873249  -16.35918238105977  -11.27486190801504
C         -24.01148803000696  -17.68076002237178  -10.81536900195900
C         -23.95278027742998  -18.60040348926783  -11.82499097856796
S         -23.74942883614057  -17.83480708715081  -13.36795443120177
S         -26.75354082650777  -17.71880156334203  -17.25855219340749
C         -27.49343198859883  -17.85881542448659  -18.82831149076806
C         -27.24689615357564  -16.71774619204967  -19.58353462105234
C         -26.47247276776925  -15.76223646846482  -18.88662760932355
S         -21.03588592715924   -8.19896665198071  -17.58053696896059
C         -19.58755611062038   -8.32209904935892  -16.46228080413096
S         -24.05740464473472  -20.33066955010058  -11.63598536472553
C         -24.23563850652373  -20.85911383490729  -13.38308384028661
C         -27.67516371247371  -16.43448512431989  -20.96470837053164
O         -28.62613483298765  -16.90733926402888  -21.54067396129832
O         -26.85287916789383  -15.53714266049295  -21.52833528588674
C         -27.16373145572951  -15.11693915450663  -22.85506937399508
C         -28.19581291443855  -13.99809050521574  -22.85633102579376
C         -18.55436665473077   -7.28618984746953  -16.85699718608197
C         -24.46814739395950  -22.35500335437786  -13.44448321988953
C         -28.16852351689280  -19.08391738444611  -19.12019395521605
C         -29.03176346028875  -19.41828860569825  -20.13429119157565
C         -29.49230113983422  -20.74367961888626  -20.05407284693287
C         -28.98816097154712  -21.41867614223468  -18.98617312047442
S         -27.93464629847140  -20.44653366868571  -18.04712022064212
H          -4.84862464876399   -2.88271431543839    4.30822666111580
H          -4.13471596687081   -9.74618999172466    6.22278323253393
H          -2.43688946420339   -9.19793203112067    8.10975748959280
H          -5.64393966706932   -8.30130381096754    2.01725263080322
H          -6.99648835545598  -10.48702965392815    1.63010533825799
H          -3.22943338711340   -4.37059128276278    8.49836888060964
H          -1.90990085177875   -2.20219866767622    8.89464307409043
H          -5.78106642176182   -1.28918518005588    2.76786315863510
H          -8.55102624323703  -11.59840676867177    6.13071415621242
H          -7.01964925922097  -12.50028448501279    6.01886640126677
H           0.08568487473465   -0.81377402968672    8.54479758475262
H          -1.38323873196019    0.17016265403606    8.80164598337290
H          -5.97222860722655    2.56073953503682    2.95774910920963
H          -7.00696473179143    2.76519602886013    1.51004904516918
H          -4.04969146557410    1.97359757389852    1.45170561384034
H          -4.68282605336474    3.58568419441045    1.08080335860123
H          -5.09345232552410    2.21452251831943    0.04202386125069
H          -9.81358392054758  -13.70193901710023    5.63459380937597
H          -8.80793791597395  -13.90554662621845    7.07457996293137
H          -8.29461945255658  -14.59388016798236    5.52889642756017
H           1.20746515610698    1.15625996824869    7.49654991673082
H           0.68173827102738    1.54886344626122    9.13864937552515
H          -0.24476918940644    2.12707791511779    7.74796110594214
H          -9.24484323649227    0.32496966010026   -0.86010582297918
H         -11.09933159292589   -0.13383493881602   -2.61319369368615
H         -16.52784211648376   -4.31461862899783   -7.65711891126233
H         -11.34337385835252   -4.91680108323121   -2.77874073694507
H         -12.94882156520433   -8.47191811326418   -5.54949492895395
H         -11.89873373540155  -10.21449201688291   -3.95169031612540
H         -13.57338871475273   -0.88033595023766   -6.47136879063127
H         -15.25113477809503    0.96495991579392   -7.18438965265531
H         -17.57143361916936   -5.40566479554786   -9.50361644252116
H         -11.55974218656874   -7.82927975854516    0.50245642220503
H         -10.25583878440992   -7.40248391851095   -0.63220658472065
H         -19.50847375959258   -0.93832509075736   -5.92554688512572
H         -19.44142973631819   -1.53114760455410   -7.60324852086267
H         -20.01089488150966   -3.94944867884310  -12.20504134709107
H         -20.70659062547632   -5.52926047980222  -12.68095038454845
H         -17.91666522813725   -4.53404039112717  -13.45705020790939
H         -19.32719524573298   -4.57365910587402  -14.52682534779655
H         -18.63547755765055   -6.08450156440554  -13.91861403682425
H         -10.01419771506202   -9.47483484599335    1.61259352937964
H          -9.32879296614868   -7.84383745805356    1.64986559006322
H          -8.73856501197853   -9.02527107597573    0.47975637867822
H         -21.04458276677604    0.89966824328666   -6.64357985885218
H         -21.73143411515827   -0.67741586190894   -7.05271324166194
H         -20.97738996281657    0.31475894456745   -8.30733389132619
H         -18.80932441854522  -11.05890207417142   -8.15236011657507
H         -20.25881092361227  -12.91181522389045   -9.25294604037783
H         -25.31727084016896  -16.78053528289361  -15.01890157421312
H         -21.67080355238194  -10.84834094959877  -13.34707344344151
H         -24.88226862935431  -11.19173220259104  -16.83791723598457
H         -23.86067962479726   -9.14323310234319  -18.05299547824736
H         -23.95984010057824  -15.50797657771283  -10.62175632809093
H         -24.14105330144890  -17.95382952776421   -9.78459383074635
H         -26.18385415149129  -14.81989096398982  -19.31575524233052
H         -19.18882431288733   -9.33237443299328  -16.55807292409565
H         -19.94461238825754   -8.16697496479682  -15.44348118011386
H         -23.32044121245155  -20.57661018587258  -13.90451538519011
H         -25.07853087866766  -20.30936160470613  -13.80328657957001
H         -27.53614981325969  -15.97600547056529  -23.42296306095849
H         -26.21371460181461  -14.77734545230151  -23.27294809772956
H         -29.13474947323263  -14.35920483598687  -22.44379942467183
H         -28.36534320269448  -13.66010943185743  -23.87453105406034
H         -27.84457989376682  -13.16143985822050  -22.25713870180928
H         -18.21738217576673   -7.45453560840564  -17.87697174735171
H         -17.69674388044876   -7.35056306830359  -16.19144796581530
H         -18.97301722713400   -6.28493267680115  -16.79367918026699
H         -23.63014953088588  -22.89035572225139  -13.00443476920290
H         -24.57769691086656  -22.66553677812509  -14.48101986970972
H         -25.37181852816100  -22.62226775055958  -12.90191150266405
H         -29.32675999302391  -18.72632527037037  -20.89921135520109
H         -30.17433932934738  -21.17786700088482  -20.76286789709745
H         -29.17226635105425  -22.43244036862360  -18.69014008499588
