185
 SCF done       -316.852886164841          0.000858148933
C           1.71758105760359   -2.47277523361238    2.06603304775384
C           1.43984987719192   -1.64237497520061    3.17656220194713
C           0.15155378398926   -1.28837513728298    3.56944981172377
C          -0.90016979310808   -1.80504960608783    2.78766007457280
C          -0.62187734132702   -2.64629683776980    1.68324592202875
C           0.66611863489276   -2.98913053492720    1.28669063230430
C          -2.28526587402819   -1.54586766171814    2.91668458241857
C          -3.05200214137217   -2.17318367797355    1.97698023554789
S          -2.08820821758940   -3.12507946156725    0.86778602578252
C           3.11620388655724   -2.71737805320829    1.93139432466072
C           3.85282085864146   -2.10296107490468    2.87823780537881
S           2.90881923796147   -1.18269189536630    3.99711567346082
C           0.88492759290455   -3.81219893244046    0.11307393842587
C          -0.08584008153378   -0.44174147601435    4.71989863843925
C           0.17406961250884   -4.90528131642114   -0.29379828293036
C           0.61261503176043   -5.43027041070526   -1.52599665172523
C           1.64394400137724   -4.73517832850533   -2.07678900845443
S           2.11254850038344   -3.41390093427792   -1.05757336313473
C           0.63113179001726    0.64772980016278    5.13087444938309
C           0.12685787455201    1.23842194183014    6.30574286373381
C          -0.96174253936050    0.59670961509915    6.81183731508754
S          -1.39332648606271   -0.76002371916217    5.82827810978665
C           2.37429142571840   -5.00257510212925   -3.34767504244251
C           3.78147239209579   -5.54072203702304   -3.08137609447729
C          -1.79395868521632    0.95917588341745    7.99286831922976
C          -3.10096619328069    1.62850117851007    7.55882410075419
C          -4.46447085842060   -2.10118330249921    1.85305572176381
S          -5.32716313841444   -2.93896203246092    0.58877275225430
C          -6.87577140041026   -2.33561377206050    1.10971942899398
C          -6.72171365500041   -1.51953463532361    2.22575473613123
C          -5.36144480606584   -1.40574336999918    2.63558927471551
C          -7.59200446142401   -0.79378954752273    3.07449798886276
C          -6.92430407851276   -0.16717928353234    4.08240153907506
S          -5.18998837237660   -0.41579894235234    4.05101379132361
C          -7.51649253403954    0.64413750148443    5.14345525226964
O          -8.68663392544310    0.93433321888469    5.20882930813184
O          -6.58891324473417    1.00455031973515    6.04266646368493
C          -7.01935303274267    1.81769903763887    7.13134777035834
C          -6.90820649925346    3.29630524377291    6.78769156177024
C          -9.49483333207369   -3.79675974703204   -1.05160862934103
C         -10.39049062225457   -2.88522274464206   -0.43818969368794
C         -11.72587413617799   -2.75684811019958   -0.79732678418394
C         -12.18941770620686   -3.63226832014065   -1.80133578543005
C         -11.30238561403273   -4.56431383198718   -2.39509246977998
C          -9.95915313490452   -4.67561731551089   -2.05307245820854
C         -13.50721347693080   -3.77022582866061   -2.29378098178919
C         -13.64372017590801   -4.76023215251357   -3.22609797862631
S         -12.13017045880015   -5.57984137735670   -3.54855423874937
C          -8.17954253691233   -3.65130985476147   -0.55812735196529
C          -8.05693292890982   -2.70093939367353    0.41946986522943
S          -9.58431464188231   -1.91802972487179    0.76578217342916
C          -9.10827303209605   -5.66226813716393   -2.68445831386279
C         -12.59499016973629   -1.77173532744815   -0.18763072870958
C          -9.11428115207424   -6.06596581901218   -3.99084551120600
C          -8.18970291704451   -7.09247360786057   -4.26371816988371
C          -7.48009723037293   -7.48903267018791   -3.17237599706374
S          -7.94470199721713   -6.58389184520668   -1.77053784426648
C         -13.52326264041459   -0.96806120263371   -0.78873822520819
C         -14.17175631868498   -0.09789056304878    0.10970895295303
C         -13.75178675695411   -0.23568751698415    1.39713736134623
S         -12.52490491056438   -1.45132219811161    1.52311298190138
C          -6.45755710203020   -8.56717065467525   -3.06741768521822
C          -7.02270106139070   -9.79623728814743   -2.35197571470640
C         -14.17456904398842    0.52889453342962    2.60340014720631
C         -13.06837011890258    1.47511066311615    3.07555417624218
C         -14.82162365854094   -5.13248316895845   -3.92300405576429
S         -16.25456249818729   -4.13097689409695   -3.87209352617360
C         -17.15182880585564   -5.19009692481425   -4.92777065558517
C         -16.36908854838434   -6.28178927214076   -5.28767798567759
C         -15.06040099435250   -6.22644070798225   -4.72328148548662
C         -16.54537876999839   -7.43669917348292   -6.08711654017663
C         -15.42626920341171   -8.21278291048123   -6.12144315776076
S         -14.08475438185934   -7.58390060173085   -5.18461956384205
C         -15.26872644351822   -9.47632143314177   -6.84005240618523
O         -16.13140035118023   -9.99680298431177   -7.50535255577548
O         -14.03642766450755   -9.97322342397729   -6.66512756019084
C         -13.74770029828526  -11.22430804559627   -7.28452123744864
C         -14.23485537849829  -12.38924421500098   -6.43454661363524
C         -20.41891835627574   -3.60563076522691   -5.61995583813009
C         -20.75620535029346   -4.79214571765526   -6.31846468349357
C         -21.96095776181302   -4.97990928033945   -6.98534491907887
C         -22.87577132533825   -3.90849550223664   -6.93251890845880
C         -22.53963707114053   -2.72094507102572   -6.23630863154158
C         -21.32890026969632   -2.52821185235729   -5.57851413427385
C         -24.16070058592340   -3.82914201839279   -7.51863086055587
C         -24.77768538675392   -2.62680609857910   -7.32526614448936
S         -23.80667391230707   -1.52819830356156   -6.37070860170277
C         -19.13068556937625   -3.68373814509908   -5.04618035758716
C         -18.46857258200032   -4.84996809592537   -5.32206385922428
S         -19.44465043434074   -5.94038431102578   -6.28531254549930
C         -21.03057773709420   -1.27077486420477   -4.92541028714239
C         -22.22577886778887   -6.20692234472793   -7.70906640123480
C         -21.88597529317534   -0.46692384188576   -4.22322341452783
C         -21.28961832639558    0.72418429329605   -3.76766596332581
C         -19.98182401774469    0.84772578922437   -4.12303176130286
S         -19.45548978246595   -0.53016574431802   -5.03129362268232
C         -21.90144404092901   -7.48259406595629   -7.33948633620628
C         -22.25514224290649   -8.45107682842577   -8.29875000770477
C         -22.84084736548141   -7.92657682549334   -9.40916730845778
S         -22.97179728951505   -6.20359625621431   -9.28424985578823
C         -19.05090362573500    1.98070186844689   -3.86113968566082
C         -18.84978436992829    2.83298927279967   -5.11638057001589
C         -23.29975046968450   -8.63090722498950  -10.63884270515731
C         -22.30077153524065   -8.44894349382654  -11.78386330180177
C         -26.05234464775143   -2.22167178874464   -7.80606546716481
S         -27.06097036472282   -3.31222446095251   -8.72891559080193
C         -28.29581838450637   -2.14030158327764   -8.93206982196045
C         -27.96992376407939   -0.95413185981678   -8.32615075902044
C         -26.69092229094029   -1.01027618792678   -7.68446977555727
C         -28.57485583888419    0.32307647068219   -8.18099260727469
C         -27.79357692669203    1.17834731482159   -7.46950664187736
S         -26.27394137650286    0.49048172525655   -6.92130389004205
C         -28.05612749666649    2.57562950982521   -7.11605589367625
O         -27.30878427452992    3.25581341124446   -6.45665962605902
O         -29.21855823964446    3.00422296374779   -7.62910041738754
C         -29.58147249197406    4.35537153128386   -7.34115352622343
C         -30.23800490119790    4.47780067189150   -5.97370426049974
H          -2.70703821616572   -0.90107826883164    3.66329475888745
H           3.54023871318066   -3.33847102722957    1.16446869019234
H           4.91773388668692   -2.12505011449235    3.00289692142406
H          -0.61871329598281   -5.34204053721652    0.28631034158027
H           0.17079242254960   -6.29419798471427   -1.99041901093041
H           1.47111603891097    1.04027161236163    4.58679994010388
H           0.55995304930825    2.11179780403217    6.76067867889712
H           2.44925566229708   -4.08031549019096   -3.92965141221486
H           1.80569122765891   -5.72986723376861   -3.93115113714978
H           4.36016677270292   -4.81482380104898   -2.51446068476460
H           4.29416679337529   -5.73781554012065   -4.01958513001408
H           3.73133034122713   -6.46531758808707   -2.51052638430640
H          -1.22555566974235    1.64074217726087    8.62963297585705
H          -2.02584176664122    0.06137918642460    8.57078707923160
H          -2.89006163647401    2.52306342786836    6.97689540843494
H          -3.68393033394968    1.91146442186393    8.43201574203094
H          -3.69175342433800    0.95073948419495    6.94633588170930
H          -8.65911983361436   -0.73624397434579    2.96461702425779
H          -6.36237850626372    1.55601240140814    7.96367458874962
H          -8.05552544167937    1.55963874378898    7.37526437065219
H          -5.88787989787712    3.53790895431122    6.49876231847735
H          -7.18569591683633    3.89301936344015    7.65158910861334
H          -7.57584849725045    3.53736015593000    5.96349009856345
H         -14.34174021899044   -3.18676182318762   -1.95025615126167
H          -7.33613002532415   -4.21962976416598   -0.90547835310387
H          -9.73632895044320   -5.61753882252429   -4.74399418614627
H          -8.05461522022356   -7.52066318169328   -5.24118077411820
H         -13.70335954352944   -0.96650183131446   -1.84903784847590
H         -14.92437672520236    0.60932947936706   -0.19194701962704
H          -5.58902176072151   -8.19926869236854   -2.51541667126625
H          -6.13367407934886   -8.84317081187400   -4.07328950278364
H          -7.33474584213650   -9.53324329660962   -1.34369832263889
H          -6.26923685786709  -10.57749447165473   -2.29090620393766
H          -7.88481898557760  -10.18371348223456   -2.89025050326743
H         -14.41930580403439   -0.16472503730150    3.41179555184102
H         -15.07237481883583    1.10129262070513    2.35949578864921
H         -12.17879064773324    0.91307269479487    3.35014102110828
H         -13.40117647622178    2.04076765669833    3.94205606200595
H         -12.80476616283281    2.17322183739183    2.28405107327672
H         -17.44527513567049   -7.69475541219391   -6.61415550451214
H         -12.66138451268626  -11.24161000685251   -7.39355947376735
H         -14.22467331919592  -11.24922759330750   -8.27012285017351
H         -13.79516866463180  -12.33906367361613   -5.44119915712275
H         -13.95071134112662  -13.32686263331170   -6.90351400222362
H         -15.31793499528105  -12.35408878412975   -6.34471201931573
H         -24.62401634219372   -4.62783308750250   -8.06842948924993
H         -18.68623610398616   -2.90781023972201   -4.45001512986231
H         -22.90373295945525   -0.73489653080429   -4.00532442881862
H         -21.81635892540661    1.46530481464679   -3.19318295520206
H         -21.45596299520535   -7.72699376360646   -6.39215485673801
H         -22.08094822772709   -9.50411766097519   -8.16646130835735
H         -18.08328284389755    1.59486369349461   -3.53078345300070
H         -19.46641304027745    2.59789756562615   -3.06162330153162
H         -18.41619110285933    2.23277806696515   -5.91310384833755
H         -18.18307917678834    3.66510019880656   -4.90459548596552
H         -19.80265117296647    3.22821099521640   -5.46083573602567
H         -24.27301641616657   -8.24071083816124  -10.94647247480981
H         -23.41043166499621   -9.69391144292877  -10.41417532049201
H         -22.19252405706534   -7.39368512072066  -12.02441874382240
H         -22.64400578778416   -8.97529958121072  -12.67099091931077
H         -21.32657714080118   -8.84055704605936  -11.50031933214817
H         -29.18055047610568   -2.38936279869998   -9.48179370715536
H         -29.53309597697081    0.59302944072940   -8.58434604139538
H         -30.27252457476108    4.63666151853589   -8.13847313033648
H         -28.68324482296707    4.98016123895842   -7.38626142447535
H         -31.10096879666232    3.81907555502814   -5.90980270668074
H         -30.55982485697496    5.50311260634202   -5.81581176634390
H         -29.52758834327910    4.20776632264087   -5.19611555174566
