191
 SCF done       -348.931444417451          0.000767225008
C           2.37359524150606   -3.51796455557242    0.09385303517048
C           1.05512468001677   -3.98101329468150   -0.08719253818579
C           0.12780785157001   -3.21911245429586   -0.83655417502621
C           0.43450707789911   -1.99372150760767   -1.42172417203656
C           1.76242248583602   -1.54393102630466   -1.26546802486658
C           2.68436040245724   -2.29878700567339   -0.50156323527876
C           0.44994642534117   -5.15431672636716    0.44933689748603
C          -0.85166447034129   -5.27622611843581    0.11697751689206
S          -1.43925095404215   -3.98248812833168   -0.86394380507105
C           2.35700692421712   -0.39834448020253   -1.84455874366369
C           3.67684755824517   -0.23940345344115   -1.52269565087964
S           4.24841024525270   -1.53241332387736   -0.47687633524143
C           3.37729712805617   -4.25320077630933    0.83273263754825
C          -0.54144670875114   -1.19898116744520   -2.13174262025934
C           4.36063766825579   -3.75806826784390    1.64574289291599
C           5.22273459176636   -4.73888608953314    2.16158843788770
C           4.91218370265237   -5.99791338085451    1.72995497541593
S           3.52613156656152   -5.98656507966906    0.68541905461876
C          -0.71833676974739    0.15691951298007   -2.07905033968792
C          -1.76766745768954    0.62818917110832   -2.88613147127407
C          -2.39342480650924   -0.37577986599606   -3.56980516194681
S          -1.70286258348982   -1.92628518295405   -3.21442051031628
S           5.76385710661455   -7.45572801467853    2.16644560060979
C           4.84564296452482   -8.70434284341215    1.18820552609450
S          -3.73043602077053   -0.31499058516090   -4.68900107308337
C          -3.97686652478135    1.49462844145984   -4.85848496295033
C           6.65219865175812    2.27279314042520   -1.88379282518734
S           6.14884845338877    0.80388953991509   -1.09901588887126
C           4.58606755629284    0.79643187726351   -1.86465432613622
C           4.47104930691567    1.89789065428014   -2.71607040265631
C           5.64104769364928    2.71394604710036   -2.71087463270850
C           3.50429927194890    2.44467884966750   -3.60138266791770
C           3.89767171711238    3.60032089570129   -4.21729712976882
S           5.50428104412310    4.09929904550479   -3.74901647235882
F           2.30606583924404    1.89933614143715   -3.82008179081860
C           3.18758362027463    4.45029834447833   -5.17336264181188
O           2.02266362249627    3.92264908773535   -5.55303342424794
O           3.63158128500552    5.50321810371928   -5.57010316003775
C           1.24743100998072    4.67641079310209   -6.48433821002836
C           0.40222018845157    5.72779611196511   -5.78004540069664
C           5.46344743167247  -10.07196849923410    1.39781866760745
C          -5.06269546467336    1.75535997589147   -5.88409017702749
C          10.42538344297840    5.54326339178986   -2.02910043339056
C           9.66596842935533    4.40334046928963   -1.68271021683446
C          10.13098502245004    3.51082829706680   -0.68505998118317
C          11.32536493508964    3.68151116418369    0.00890088221602
C          12.08611589901321    4.82079021915966   -0.33693138707671
C          11.61946451526812    5.71202507074903   -1.33492266136822
C           8.41789207357280    3.99986997608094   -2.20764434275926
C           7.90868137801385    2.87698300679510   -1.61759624543266
S           8.98488818821304    2.22634072218152   -0.40287360273318
C          13.32726478583077    5.22824544889359    0.20317988958417
C          13.79086737356697    6.41021477012096   -0.30522783380487
S          12.70664596944117    7.05823762766382   -1.52588155174666
C          10.00376871276151    6.49661572997987   -3.03025631820241
C          11.73428876213285    2.75070106529907    1.03521438362255
C          10.78864676425582    7.19640878551797   -3.91006533091637
C          10.06864385015571    8.03920823547342   -4.76981454942934
C           8.72014979518314    8.00440496935365   -4.54678642702605
S           8.32734757419047    6.93510498803496   -3.23852742903531
C          11.57593671877818    1.38925510619745    1.05502394915458
C          12.06431954661801    0.77637920909039    2.21786798378998
C          12.58601523928995    1.67304204367395    3.11057140228470
S          12.48743151485536    3.29592752871752    2.51320090860308
S           7.52383606285790    8.92299446584325   -5.42171902104270
C           6.05351990016838    7.83272882126231   -5.33391360832974
S          13.28774190485234    1.27343254900538    4.65356111302801
C          13.75104516245908    2.93418636510596    5.27687054057031
C          16.76454686051843    8.93962831032954   -0.09455386498032
S          15.30392989290544    8.55621203166970   -0.96566980360962
C          14.96826387568338    7.14293564836363   -0.00757780516789
C          15.96555943014870    6.97772000061716    0.95433610952915
C          16.96679527171983    7.99412091640165    0.88562818106251
C          16.26315603236814    6.08351764797035    2.01578495173787
C          17.41097565735316    6.38617236992667    2.69480087640650
S          18.21535456935326    7.80845038816376    2.07663424446998
F          15.50175812753977    5.03393763727882    2.33718049149506
C          18.04562464036148    5.69180761699585    3.81871648152424
O          17.30409453359520    4.67259056464156    4.26643302429276
O          19.11846947409315    6.01093677097863    4.26900332800666
C          17.84699291925723    3.92075595665103    5.35210191815821
C          17.69426953649052    4.65084434136405    6.67860787562961
C           5.20325517842503    8.06865878100385   -4.10343552956767
C          14.24143924628781    2.81312562224932    6.70591925672101
C          17.90041656463751   13.20834756894395   -2.39153717196936
C          18.00643258167688   12.10651581235683   -1.51216556991472
C          19.05313039916778   12.03724871535428   -0.55885594173973
C          20.03162065074482   13.01637884883231   -0.43025319262316
C          19.96643625374209   14.08497241211188   -1.35122314040451
C          18.91063153365885   14.16203907582076   -2.29232780334127
C          17.15923195366703   10.98212896204753   -1.42909135987011
C          17.49165051976642   10.10902749436222   -0.43045417788476
S          18.91437130378595   10.61529419152624    0.44720103435794
C          20.87521570561336   15.16180885437123   -1.47831844424930
C          20.52198310218777   16.07168401250982   -2.43342465694447
S          19.04147101056580   15.60848602622236   -3.25509909121977
C          16.80367375016899   13.35517338338150   -3.32070999847502
C          21.04755973001239   12.97388454595726    0.59637387944868
C          16.80465225586682   13.93162345835177   -4.56437769806553
C          15.55442070060569   13.92249067144507   -5.20174333980643
C          14.57277738398585   13.34883096363909   -4.44147126418560
S          15.19021639378628   12.82025089414775   -2.90978118939996
C          21.54571683609941   14.00995526429593    1.33892969375902
C          22.53192354533495   13.62651726710464    2.26368284019469
C          22.79538700332584   12.28615888071067    2.22473389643611
S          21.81427222982776   11.46967257507463    1.05053048433525
S          12.90104565110396   13.16202421991926   -4.89828108357468
C          12.32972504158492   11.94549329141830   -3.64843388574093
S          23.92503424936025   11.32920113862372    3.14676352970147
C          24.75646284621916   12.61976135448052    4.15072302795179
C          21.99033585749116   19.23633101645778   -4.17109686719630
S          20.85056379760964   17.96716825191241   -4.38466824946603
C          21.19868487907607   17.25800908295150   -2.83512159515489
C          22.16856643139078   18.01050954908853   -2.18101967462141
C          22.60730913492152   19.12733457643179   -2.96425763931479
C          22.82487729643544   18.01336969698642   -0.92236268116000
C          23.71792788863409   19.03565402264937   -0.76029831989139
S          23.81366809065980   20.08767198293618   -2.15497082216660
F          22.58338060392237   17.11303409960060    0.03443787276951
C          24.57475813182490   19.36116853261832    0.38257327609651
O          24.40434882348301   18.50685029244258    1.39679345517640
O          25.33296395420056   20.30044106775385    0.39249942768634
C          25.20577172817200   18.72289426388779    2.55716188620311
C          26.58957271103174   18.10931478039352    2.39862306655367
C          10.88755137825100   11.56939524349918   -3.92109326071015
C          25.82895520224367   11.97082851054144    5.00383004583303
H           0.96674748944030   -5.86423684176679    1.06771599769701
H          -1.52923335621161   -6.06072001149418    0.39196061502486
H           1.81789668556568    0.26026295191808   -2.49389585621762
H           4.44433537906352   -2.71680802742031    1.89899573284261
H           6.04394498156733   -4.53504405815153    2.82322977704187
H          -0.14211470891452    0.80138565440782   -1.43978871042959
H          -2.03943332824171    1.66547814607435   -2.94517565169582
H           4.89753433225871   -8.39996144481256    0.14232766202145
H           3.80779988157263   -8.68073464956459    1.52279264795513
H          -3.02541278201507    1.92460675481564   -5.17098811341914
H          -4.25973390257944    1.88220082052444   -3.87977010374408
H           0.62098326052478    3.93838536554756   -6.98893367412676
H           1.92185904582154    5.15152474922368   -7.20435800703078
H          -0.22369590506772    5.26061309752294   -5.02368926219047
H          -0.23024897194352    6.23178756526755   -6.50494807643284
H           1.04441935735096    6.46347263842769   -5.30238200249973
H           6.50261271497432  -10.07341923265755    1.07754825803161
H           4.91768004969583  -10.81375192322634    0.81914031274477
H           5.42583969001422  -10.35041373231207    2.44831744204305
H          -4.78176081444397    1.34122655244759   -6.84941793111182
H          -5.21738027422329    2.82656047775137   -5.99388809398446
H          -5.99820410220722    1.29737858993306   -5.57202196096530
H           7.90410075544189    4.50855392676261   -3.00011851987978
H          13.86608518078023    4.65581242487108    0.93002304395029
H          11.85276327232100    7.06378548628370   -3.98386591838380
H          10.51415120416737    8.63347203807752   -5.54548078902530
H          11.15838706530656    0.83429823669321    0.23468201361315
H          12.04043719380536   -0.28189590908286    2.40025102317746
H           6.40591957889893    6.80375629860251   -5.38339811782218
H           5.49156195936483    8.05839092999859   -6.23877395488191
H          12.85924429393411    3.55921311607837    5.21901191084061
H          14.52058153510025    3.33578089328744    4.61605904238625
H          18.90534783199451    3.72372404757837    5.15177567453423
H          17.28632823238529    2.98415356941173    5.34560065837110
H          18.30443091871189    5.55045202054229    6.67932038451961
H          18.01894411206871    4.00395086942415    7.48841016875705
H          16.65517985010151    4.92837970021138    6.83803514000604
H           5.76039231317728    7.85405894909238   -3.19368263066273
H           4.34525528710411    7.40276069329181   -4.15289646087919
H           4.85537197029839    9.09857479854305   -4.06890098706105
H          13.47002661629918    2.37630820863750    7.33629014400301
H          14.49036454711170    3.79797049081529    7.09385774798465
H          15.12515560156982    2.18154445414363    6.75767249336248
H          16.32897201469642   10.79331341845771   -2.08368747126347
H          21.78149231922329   15.22281043023343   -0.90984194283186
H          17.69301777426231   14.30778730280257   -5.03798317861374
H          15.37614526861920   14.31065810842529   -6.18731140349068
H          21.19030199635566   15.02118761667564    1.26086596454599
H          23.01424170705221   14.32377416214420    2.92259652655092
H          12.44157941705102   12.40790800804869   -2.66718000706389
H          12.98669837301343   11.07790541675436   -3.71881872529854
H          23.99599675595010   13.09591112681471    4.76946200282983
H          25.18578952331516   13.34569649725775    3.46044115940742
H          22.13076587210606   19.97203160737116   -4.93508205469266
H          24.65299457233488   18.24916856108435    3.37107030691205
H          25.28773643081482   19.80008449698764    2.73645809957112
H          26.50662584664727   17.05079948371558    2.16308402149346
H          27.14821850852339   18.22697947070757    3.32271633990420
H          27.12712102999524   18.60905066602614    1.59642254774683
H          10.23948193781371   12.43699559341980   -3.82500627098045
H          10.56634427577741   10.81021102202584   -3.21169809654303
H          10.77775018286064   11.17101630856004   -4.92656361849876
H          25.38988247274000   11.22825518408223    5.66571772099002
H          26.32854414023645   12.72580220023664    5.60708552276508
H          26.56811312504036   11.47854124862215    4.37639706109337
