224
 SCF done       -396.189451913017          0.000823656283
C          -1.90613885576439    5.83745058978931    2.34957392729073
C          -2.60470863732434    4.88917180695304    1.58052143567118
C          -1.89971635741006    3.92529938325213    0.82366570645053
C          -0.50989638637285    3.84358422168539    0.78380983397844
C           0.18914495964242    4.81512447350256    1.52530427566839
C          -0.51795081198959    5.77548367111386    2.28821662640615
C          -4.01575168213999    4.73735820034579    1.43890577517958
C          -4.35801124445287    3.70074345685803    0.64809096713124
S          -2.99961703321717    2.84651879874734    0.00457876615145
C           1.59165690019871    4.98768519404318    1.63128116850560
C           1.96155038343377    5.99700592213030    2.47040126358015
S           0.57485884269878    6.81645585327793    3.16322148117107
C          -2.56933126738367    6.82483928032500    3.18215313872801
C           0.15943806480891    2.78781370527302    0.04990257525894
C          -0.17802528198841    2.29905242217444   -1.17909563937817
C           0.59468836788345    1.20776142941065   -1.63584144875316
C           1.55933506197841    0.76890056776102   -0.78457850159621
Se          1.58626353576850    1.79463337868558    0.78542463719754
C          -2.23079414136116    8.14027857008219    3.30935459405146
C          -2.98672606800621    8.87941799692986    4.24769167252004
C          -3.94234705520484    8.18226513243019    4.91545350592125
Se         -3.97587419626860    6.38868379698489    4.36213429657127
C           3.28260361418157    6.41423083404070    2.79619889708756
S           4.65381136201051    5.71868470284593    1.99443148681333
C           5.74728693361524    6.70122896308471    2.92609885577519
C           5.05476829772763    7.51165530600545    3.80250912685544
C           3.67246417506640    7.35467249800678    3.72527173607739
C           7.16709736035709    6.63917311453432    2.75868133604842
C           7.80733026241735    5.88450570022953    1.78250753133255
C           9.19677393466898    5.83297328456449    1.60452945130731
C          10.09726780117503    6.52885436978981    2.40003347794077
C           9.47214559003337    7.29676022143931    3.41078222675692
C           8.06040470164797    7.36182267797741    3.58976572405060
N          10.03224160497478    8.07451700072388    4.34303315374631
N           9.02452168159265    8.55252275766449    5.01588699546792
N           7.83609295359688    8.17789604876644    4.63064714443840
C          11.52266197558842    6.50735764384919    2.26659638517210
C           9.22001177746706    9.43050840370539    6.13456179570583
C          10.03933710587777    8.73360191871383    7.21399257136639
C          12.30281627337123    5.93514929644072    1.28372591842260
C          13.66942675073681    6.11918342480656    1.48753478993636
C          13.95962228015138    6.82703838699095    2.63328405512711
S          12.50801445119823    7.29097457029333    3.46886557821409
C           2.50976261717964   -0.36298518826996   -0.99758069355883
C          -4.85825026224765    8.68832614862222    5.98026522163864
C          -4.50583534566445    8.09495741465181    7.34412862661754
F           7.07104478453031    5.14424233473139    0.92932567801078
F           9.63804646823993    5.04822728914343    0.60201297372021
C           3.96127390757501    0.07040150353600   -0.80462240119903
C          17.57894285481316    8.46413519615587    5.68607601697047
C          16.93628452060051    7.93378889532929    4.54838956623270
C          17.70173325574655    7.46309275273226    3.45321144908579
C          19.09062784341091    7.50252849681527    3.40935360852975
C          19.73050161726978    8.06117055281322    4.53340746972861
C          18.96863094587777    8.51205879234863    5.63877787046065
C          15.54743471556585    7.77180292090360    4.32527285649967
C          15.24523589074476    7.16210000429526    3.14200584459479
S          16.68167964017551    6.78408248721364    2.21308343708469
C          21.11926576860418    8.23532693502767    4.74226583185794
C          21.43418333467271    8.74120554565413    5.96950209993927
S          20.00467032698423    9.06867295676970    6.92901572246643
C          16.86057073661137    8.91060229247351    6.86408071189127
C          19.82033276368432    6.95825519147679    2.28077617312065
C          19.49853669295761    7.08689445736531    0.96040914519971
C          20.33652734184185    6.39545581451848    0.05702431496604
C          21.34123699511497    5.67229801131188    0.61832134398700
Se         21.32051775396579    5.83186582971002    2.48694658472239
C          17.15485315225616   10.00230274293935    7.62896249443919
C          16.35895325593274   10.17585835066008    8.78349517986075
C          15.41339676049277    9.22389983025400    8.99712321633433
Se         15.43874171618159    7.93505053709666    7.63208953965882
C          22.73418945535747    8.99924917783441    6.48640095966410
S          24.12817721467299    8.86395742853076    5.46363259965812
C          25.18597113489409    9.26510958546855    6.78515727550816
C          24.46640587105632    9.48850541135800    7.94130829143799
C          23.09044624788354    9.34747276796595    7.77151487486617
C          26.60725495104736    9.33383524683640    6.63284207502551
C          27.26666455329982    9.25593386980530    5.41155140551579
C          28.65721221549657    9.33597110232107    5.25494472321008
C          29.53976094903548    9.48489099036137    6.31653032850199
C          28.89502237496900    9.54327512742194    7.57510214147114
C          27.48144126119968    9.48443768047831    7.73881586757549
N          29.43634098734899    9.65665517300662    8.79242793535732
N          28.41649618832289    9.66605217320064    9.60287350629214
N          27.23644723118683    9.57042208834372    9.05504207002757
C          30.96491007876205    9.57314335307213    6.21735396830181
C          28.58702697580098    9.76185045093444   11.02557076910170
C          29.43353759034587   10.97682079154970   11.38085403698815
C          31.77335999591340    9.57615863043501    5.09950078300272
C          33.13109333218816    9.67781700657378    5.40024748816630
C          33.38477125730169    9.75192033862025    6.75203100848891
S          31.91097644238578    9.70198260936931    7.67200833560722
C          22.36933181670439    4.84955881505056   -0.08546240335675
C          14.44360326974118    9.15144641942403   10.13045273038257
C          12.99813253762473    9.17115746863157    9.63710263178930
F          26.54896096248323    9.10303316243732    4.28046229760405
F          29.11844086759774    9.25643375506725    3.99147168130407
C          23.78731690507930    5.29199349650610    0.27045526413910
C          36.80810385610460    9.89173688087516   10.39383638743039
C          36.24198175507366    9.90881863443380    9.10253461211910
C          37.07394254842993    9.96216476963015    7.95751926654342
C          38.46244047213369   10.00757824471212    8.01719320003063
C          39.02777897043408   10.01233171128123    9.30817682921912
C          38.19621927240842    9.95290230699213   10.45364519173008
C          34.87188604805044    9.86370147338353    8.75279758365653
C          34.64411325628028    9.83435532032136    7.40744048698046
S          36.13361204280300    9.90166579099170    6.48900573381790
C          40.39924284776254   10.06259126433681    9.65429036281449
C          40.63332900456398   10.00280801018060   10.99701931121126
S          39.14454091308039    9.91008467956395   11.91760422938766
C          36.00772158430463    9.78506733150259   11.59861284304476
C          39.26206314678228   10.02190271218146    6.80739672035467
C          39.00026084198202   10.72912564369110    5.66901539550869
C          39.89286578164075   10.51277413857082    4.59572301418433
C          40.88660631522197    9.61483004425358    4.82660727321145
Se         40.77545395328723    8.91998809427913    6.56500505981237
C          36.21755517679965   10.43675340254451   12.77970092235708
C          35.32728941541765   10.11044765512131   13.82764694963367
C          34.38993166111716    9.17163623476802   13.53416774449549
Se         34.55984443734374    8.58458590597762   11.75997576467684
C          41.89226243941738   10.01048952440176   11.65878817487573
S          43.36760379716659   10.12495308953566   10.75405155095455
C          44.31408605809217   10.04763518000132   12.21212419381636
C          43.50058370941163    9.94151447089275   13.32170356263161
C          42.14252751589753    9.92140078023565   13.01130353042531
C          45.74507039758489   10.08776256576688   12.20137103862471
C          46.51643784231748   10.22610474618219   11.05468582122231
C          47.91882258048164   10.26580956969198   11.04311178318426
C          48.69893856237054   10.16702824080439   12.18586956199965
C          47.93820148821085   10.02074252752092   13.36996342117144
C          46.51360599936153    9.98378587407366   13.38825776543205
N          48.35862796775449    9.88887327076247   14.63327043967773
N          47.26430836487240    9.78417813662562   15.33127637161849
N          46.14250899335740    9.83338421062172   14.66819552538331
C          50.13373377900331   10.20447364608988   12.22422973273582
C          47.29441692806108    9.65507581275324   16.76011744887966
C          47.69005459966910   10.97961839346256   17.40396045865984
C          51.03650938931140   10.30545838314352   11.19223603199610
C          52.37151146518400   10.31357751937636   11.62798822791335
C          52.48159437344141   10.21987840120089   12.98115198528782
S          50.95612539229093   10.11120354871241   13.75668552948297
C          41.94949735173282    9.17324509954584    3.87623908667670
C          33.31049698122358    8.65420079817271   14.42715473291620
C          31.92768260516289    9.05148396017349   13.91046667601416
F          45.90885492329951   10.33498517712929    9.85600020355856
F          48.49476967765317   10.41003636039541    9.83334869388591
C          41.79095012640916    7.69892716542712    3.50639922462539
H          -4.73641037279142    5.39056586761957    1.89985191746456
H          -5.34323813463542    3.37418548291262    0.37814034846016
H           2.31633476965689    4.40064944622082    1.09245328843153
H          -0.95209218682657    2.74169144760574   -1.78299798957158
H           0.42636784693990    0.75511271286502   -2.59917085538245
H          -1.46281668640946    8.59692234777901    2.70808618678645
H          -2.81490850359125    9.92966873208620    4.41723983622055
H           5.55654476571045    8.18972866401554    4.46712262689535
H           2.96583574436153    7.89997926178019    4.32576779993389
H           8.22855325680439    9.70704295662438    6.49627500567461
H           9.74715008024127   10.32284096144691    5.78505265793984
H           9.51307285994979    7.85772264835833    7.58537933202560
H          10.21567977171246    9.41329556318772    8.04224411440693
H          10.99474872771259    8.42063454970662    6.80076360369110
H          11.89978390617808    5.40475243596195    0.44151067799996
H          14.43273317406169    5.74515582765925    0.82812991458706
H           2.36675389823956   -0.75134936715712   -2.00867810605688
H           2.28147409874123   -1.17028467755497   -0.29426078975947
H          -5.89229628169872    8.42842449929502    5.73454528281206
H          -4.78236147029580    9.77733955677943    6.01957834948115
H          -4.58034406310073    7.00848445290964    7.30726852625031
H          -5.18496457782418    8.46497321040108    8.10837625991923
H          -3.48806277750245    8.36066021175747    7.62074408785277
H           4.21755139695260    0.86255752530362   -1.50464751860846
H           4.63540440685714   -0.76795133190030   -0.96230434473571
H           4.10620152003922    0.44772631956612    0.20839512929956
H          14.77984048553513    8.10098943439289    5.00541016706029
H          21.87516938436482    8.00774143368134    4.00963516115748
H          18.68739927195920    7.70988972049530    0.62309834930450
H          20.18547203802714    6.44191771339243   -1.00889653279916
H          17.91743397260990   10.71041142932587    7.35227995076573
H          16.49870919765176   11.01058651209848    9.45059682008186
H          24.94466859020216    9.74385295609265    8.86832972951805
H          22.36554015508668    9.48314698321193    8.55470622446698
H          29.08009446564940    8.85024171372381   11.37725542787639
H          27.58725391479808    9.82215515680701   11.45844059023796
H          30.39731179384156   10.90849402182402   10.88343686582562
H          29.58874538176621   11.01519733970287   12.45491314740863
H          28.93983038703994   11.89224942240591   11.06435291884292
H          31.39675760227452    9.50747326348315    4.09619571933382
H          33.91297978497500    9.69299725776628    4.66150251225224
H          22.20945161689593    4.93950398953685   -1.16239601647647
H          22.24544995990633    3.79617968085609    0.18493650295336
H          14.62227141233339    9.99906877270757   10.79601691545619
H          14.61276276576036    8.23396225369187   10.70208961390230
H          12.80330390007964   10.08454694334163    9.07918631918952
H          12.30755426283562    9.11627369436255   10.47519305583327
H          12.81883589067327    8.31957743870900    8.98055004557734
H          23.94064941947076    6.33305726481228   -0.00485399099474
H          24.52076965987634    4.68067463900568   -0.24953796969420
H          23.95028647567434    5.19355663064844    1.34424073170220
H          34.06138210783846    9.86665098689449    9.46183113393051
H          41.20091370770943   10.15542552933134    8.94138920716277
H          38.19128333915079   11.43707930745086    5.60404726602637
H          39.79065485782549   11.03073987633696    3.65636569883743
H          36.98313616200100   11.18501401866730   12.89585580982528
H          35.39244181859594   10.57807193393301   14.79636201466436
H          43.90083799831614    9.88002442030152   14.31626745840570
H          41.35512028780710    9.84187489699395   13.73999896284152
H          48.02360583754317    8.88224909583243   17.01452864315249
H          46.29618901972300    9.34607355114062   17.07390619052615
H          48.66531365328744   11.28962989239342   17.03739617829185
H          47.73789601472046   10.86567392877390   18.48294299497679
H          46.96170515140494   11.75069246167721   17.16475678320239
H          50.75609765075799   10.36993911306716   10.15787196367127
H          53.21319526222088   10.38439006578390   10.96235696489301
H          53.37626881505187   10.20226991722323   13.57152776937698
H          42.93439436027540    9.32343660269406    4.32860624571861
H          41.89258242134743    9.78974295257335    2.97631119608709
H          33.46203423645341    9.05697844486132   15.43108066045224
H          33.36937410367465    7.56357105380642   14.48760078895242
H          31.83969173302923   10.13494226249161   13.86744588760177
H          31.14941866719860    8.66041045328798   14.56155584599232
H          31.77963704253657    8.65314167123452   12.90655417138886
H          41.85302097459149    7.08202348346110    4.40268169877828
H          42.57458420590611    7.39209749431082    2.81803491670843
H          40.82488629701002    7.52779371852662    3.03674946798876
