272
 SCF done       -488.687341292955          0.000744242880
C          10.75669237151494   -7.22489485258744   -2.70041244343512
C           9.75448562575327   -7.17218779943309   -3.69048723613635
C           9.03784768342113   -5.97567891351812   -3.92004532393346
C           9.25081826564454   -4.80469465616936   -3.19112518482411
C          10.15261460841369   -4.90593325099443   -2.10855423637638
C          10.88816377469375   -6.09748529537939   -1.89665724926991
C           9.28417955734952   -8.23315291682388   -4.51886204751962
C           8.29214678858228   -7.85181003900436   -5.34781136977631
S           7.86838915141137   -6.18318388246427   -5.19402770932439
C          10.36032177942249   -3.97683059495479   -1.06154001823892
C          11.21741824039939   -4.40838783196901   -0.09075131737835
S          11.89942892429783   -5.97285553020570   -0.47860124059234
C          11.58367501042446   -8.40190522424309   -2.54402811296049
C           8.57069346756126   -3.56529366804817   -3.48090882232986
C           9.02004836557837   -2.28832292850651   -3.26130240524413
C           8.09369037518053   -1.30954166677882   -3.64971309813337
C           6.91969158826202   -1.79937225929331   -4.15764265168270
S           6.97280026205123   -3.53127103200044   -4.18355600428747
C          12.10299119874361   -9.18682968416331   -3.53565736184590
C          12.85673524055499  -10.26553475022824   -3.04163431349784
C          12.94033734509245  -10.32526558715565   -1.67659824713603
S          12.06276757272112   -9.00281962471566   -0.97664979949895
C          11.35826434238450   -3.82174897540798    1.20075469485246
S          10.59539622211067   -2.28615973960783    1.49537211574473
C          10.69118893069796   -2.51816351482269    3.22452427526151
C          11.36963292115912   -3.67200349091074    3.51902803279069
C          11.76720635503374   -4.39379005656414    2.38274359635835
C           9.69960587442411   -1.77096892471833    3.96576618254885
C           9.28739993808520   -0.51138686944200    3.58490148734857
C           7.93825961063493   -0.11850027958360    3.65514917314994
C           6.92620481579165   -1.03052857767930    4.03947525694115
C           7.39288141923709   -2.15546293196870    4.76798428870185
C           8.77423709480568   -2.50970255876509    4.75390810699200
N           6.74823468184679   -3.10437399392356    5.45060460595389
N           7.68791766760952   -3.93458942930362    5.82006299924225
N           8.90269364114295   -3.65427986308064    5.42663448368677
C           7.41725941943320   -5.06211644985172    6.66336580657034
C           7.99415312539747   -4.82235191286532    8.05456944740250
S           5.51094292169189   -0.98368446707341   -4.79210187571588
S          13.71735708142798  -11.46058467900095   -0.59979923960688
C          15.02360003015138  -12.17566808600963   -1.67617089889611
C           5.30538442005556    0.38243396828349   -3.57674383708473
C          16.01199231769722  -12.93134648083557   -0.81106260723599
C           4.12044917827386    1.23337237798610   -3.98564988563344
C           5.64118719367286   -0.96714294586419    3.47291572827587
C           5.27064080315336    0.02003583554319    2.58069196383997
C           6.14441017750365    1.13825668991772    2.49631408465742
C           7.46537745191562    1.06013098925178    3.02549028221742
N           6.03012760750822    2.32288848177164    1.88536259950182
N           7.19693029785358    2.89067030979436    2.06420423729019
N           8.09205525492875    2.19316566145887    2.70811178981073
C           7.47945457802974    4.21957544336140    1.60217216600385
C           8.01925015225444    5.06568205862044    2.74847178288701
C           4.28684791848655   -0.20884789305014    1.55775885327792
S           4.08592851931029   -1.85645686564238    1.02887321144185
C           3.30406538773838   -1.33566790233244   -0.43662514083174
C           3.11818124220181    0.02785544381246   -0.43214924721006
C           3.69410743332296    0.66185320963946    0.67678064483639
F          13.43820962675019  -11.15153438433701   -3.87492323803323
F           8.36449348287173    0.00372522480101   -3.52632269766449
C           4.41794957323895   -5.29202244510467   -3.26450617080491
C           3.80192014652645   -4.08341096455382   -2.85081108796901
C           2.99189867850659   -3.33967276507793   -3.74423199408066
C           2.70671344749994   -3.75589698814348   -5.03446372609095
C           3.24407645704661   -4.99949229363740   -5.42107154342594
C           4.06523240478777   -5.74397462426263   -4.53898192711977
C           3.86712688975632   -3.45101861822872   -1.58915311222853
C           3.19476273956127   -2.26300522649282   -1.51328274302451
S           2.37258689367426   -1.88466393615876   -3.00776650604199
C           3.01507423644586   -5.67175621494201   -6.64128662406271
C           3.54894116115943   -6.92611956500307   -6.69877949214797
S           4.51152761892987   -7.26611077929680   -5.27418406107108
C           5.38412552417074   -5.98790665864133   -2.44516305046073
C           1.91175114572227   -2.97389971556863   -5.95998566709753
C           0.90605854237686   -3.38616147351244   -6.78828027811388
C           0.44043342147314   -2.35797274851540   -7.62481618044965
C           1.06991141287281   -1.15449231316653   -7.45431733837185
S           2.26987088642612   -1.28810000872287   -6.20927567915389
C           5.79631064904004   -7.29201796797028   -2.52219074725587
C           6.84369388071025   -7.60532404321394   -1.64016719826487
C           7.26249772961554   -6.56612157805174   -0.85503444450932
S           6.34225055465852   -5.14961670850674   -1.23700956997179
C           3.11774274406266   -7.95140634719227   -7.58975629533761
S           1.73895150227645   -7.59291830455310   -8.59456628304191
C           1.40430603384640   -9.28853462062539   -8.82022521003574
C           2.40822176516615  -10.05341605227378   -8.27026831907875
C           3.37107719742825   -9.30417188187477   -7.58121966851756
C           0.03208643528919   -9.60347992703532   -9.11920313550169
C          -0.61279057165339  -10.70402804693893   -8.58210236153075
C          -1.97435508999745  -10.65857359011577   -8.22170542180405
C          -2.76329945188104   -9.49761994233894   -8.41099531148497
C          -2.19607249675701   -8.51274502906898   -9.25998741811607
C          -0.81484528466334   -8.56125478991164   -9.58641452209088
N          -2.67292924267491   -7.34909018948265   -9.71335403048062
N          -1.64283797987802   -6.77100143455750  -10.27198130593661
N          -0.51345135714645   -7.42436117311967  -10.22173833182605
C          -1.74758089824208   -5.48526299287467  -10.90187033205517
C          -1.42712369723222   -5.58899222140781  -12.38774188735147
S           0.82311578307530    0.30450519770619   -8.37693756266637
S           8.44136285101733   -6.42715684378890    0.42489509550309
C           8.94262379622004   -8.16958741411273    0.70201349822811
C           1.48385492786729    1.53619702870733   -7.19461857611899
C           9.92870043760651   -8.21437668146503    1.85100075887926
C           1.17268855912033    2.93430368426986   -7.68703074880118
C          -3.83215496337710   -9.17837895128762   -7.55717896033553
C          -4.17771289151328   -9.96474118880950   -6.47549522369070
C          -3.62867469757139  -11.27762780720664   -6.47563075060533
C          -2.55114500456435  -11.62071298805784   -7.34762544703394
N          -3.85967158408610  -12.33574123128258   -5.69345271134052
N          -2.99106004242154  -13.22996118564878   -6.09008524162745
N          -2.18119125475646  -12.86875754210081   -7.05059199276636
C          -2.97274754057400  -14.55690751983604   -5.54541128963789
C          -3.91156506605264  -15.46915941504234   -6.32944376411215
C          -4.71791455156553   -9.38465669788721   -5.27721487403423
S          -4.52512183526620   -7.66366767542544   -5.06479002341761
C          -4.78469977931798   -7.79952909205563   -3.34799216284410
C          -5.10185642738887   -9.09415173744090   -3.00577322294826
C          -5.05711465186139   -9.98363919229494   -4.08661544234629
F           7.36329218987473   -8.84940340833538   -1.59967837228964
F          -0.54677679376591   -2.55878903551081   -8.52043907397529
C          -2.86433234125649   -3.39136180368430   -2.04555952642348
C          -3.45455171279304   -4.66607185425334   -1.91728160846833
C          -3.50600260389275   -5.30668836185965   -0.65618400706269
C          -2.96659859148359   -4.75072445330394    0.50230247916456
C          -2.26898653700011   -3.53238248257389    0.34801668398541
C          -2.24411431672947   -2.88224245740366   -0.91024308494410
C          -3.97824479399326   -5.48002049584553   -2.94840638685180
C          -4.44131081631766   -6.69133414939592   -2.52205762603129
S          -4.30460682864087   -6.85606616135374   -0.78100777435059
C          -1.51981154888901   -2.82104294979654    1.31833968809691
C          -0.98559193185415   -1.65527551022544    0.85408091039228
S          -1.37422495014066   -1.37691513849422   -0.83140132525316
C          -2.94248285053246   -2.65780186259430   -3.28796898693511
C          -3.13990768897187   -5.37936879355379    1.79328577573007
C          -3.19528870306548   -6.71159865668081    2.09427183634049
C          -3.48647176591430   -6.95737607630942    3.44726754940804
C          -3.66032716856375   -5.83353435454475    4.20939763664310
S          -3.44873684121331   -4.42151712234238    3.22392748315648
C          -4.01009449566842   -2.59149059843426   -4.14041045323000
C          -3.79552385330728   -1.71696967292709   -5.21833447367237
C          -2.56636654822883   -1.11443929633156   -5.22821315978945
S          -1.63550994128589   -1.65262707142820   -3.86331302037575
C          -0.17042446596154   -0.70901891790008    1.53745425255639
S           0.67062744190444   -1.12172188312569    3.00138435286177
C           1.39988841011330    0.45846970739207    3.07558781043810
C           0.97128438600315    1.24459335761781    2.03114917484381
C           0.09918392545174    0.58675763398178    1.16243879464392
C           2.42231126402000    0.75771858247911    4.03523273790154
C           2.82213160437516   -0.13814640198168    5.00305158587443
C           3.98519695794265    0.04368539226985    5.77360082555009
C           4.83598629461955    1.16012062472121    5.61687181808309
C           4.34371998152252    2.16643614192195    4.74629366296039
C           3.17110233497709    1.96566072660574    3.96253024527039
N           4.82503378012279    3.37844044341206    4.44668691687599
N           3.99054336437521    3.84374103396957    3.55563087985839
N           2.99858370631105    3.06381196646696    3.21989942476159
C           4.10055520660496    5.16937133246827    3.02030118571356
C           3.02479290780763    6.07384269269358    3.61371026879890
S          -4.05913037641731   -5.59958431072432    5.89450887374679
S          -1.84554595646597    0.07476543328930   -6.28174030771861
C          -2.71522549545407   -0.16627293656870   -7.87737973304545
C          -3.63786946911878   -7.22925068928064    6.63020387788139
C          -3.86236443746790    0.80580997933434   -8.05961747231393
C          -3.68550320731458   -7.10776535301273    8.14025124400718
C           6.12491337144506    1.19814950889254    6.18134153119899
C           6.64205499633154    0.17098112355460    6.94283262592007
C           5.74118888818119   -0.88060778575724    7.26971101881540
C           4.44470192611508   -0.93839814925979    6.68567214097573
N           5.86534047335054   -1.95375696267342    8.06275636654493
N           4.72219481441490   -2.57914916588271    7.94018897353841
N           3.84345334377536   -2.03953799415886    7.14218028740654
C           4.39632649821473   -3.74272083831220    8.71350735408152
C           3.61158049235019   -3.34690571879762    9.96155527391247
C           8.03159683747828    0.10163972022101    7.30131640444079
S           9.18806242576881    1.22039254007070    6.63386574048083
C          10.48146681909664    0.39785389848255    7.40485634792086
C          10.05480437834484   -0.66878863494782    8.13231656987441
C           8.66063653258158   -0.84020850378535    8.07378963646542
F          -4.75641304062553   -1.49795858819689   -6.13645364883991
F          -3.58031249028052   -8.21609179543989    3.92191571530116
H           9.65108080287957   -9.24059096540162   -4.45602368295557
H           7.75476477500656   -8.45101675828945   -6.05612675703016
H           9.80304156694012   -3.06448036191729   -0.95845385979592
H           9.99779238966500   -2.03764397570767   -2.89495281821098
H          11.98698016166822   -8.99690186823103   -4.58657220610843
H          11.52632251684695   -4.00742436537109    4.52792182539313
H          12.27211729123436   -5.34323407832976    2.42205557232681
H           9.96505298204991    0.13896605997367    3.05192190652446
H           7.87367299290947   -5.94720366822982    6.21197739062751
H           6.33296015198446   -5.18034528824080    6.69365454438427
H           9.07159487903547   -4.69620299695371    7.98614791083149
H           7.77759006624431   -5.66742900837397    8.70263441706311
H           7.56607055848539   -3.91863226470597    8.48235530239123
H          15.50256976313187  -11.34691678327530   -2.19559445624296
H          14.54351855095481  -12.83534487756974   -2.39722119743856
H           6.22222178531185    0.96761256856830   -3.56995121154887
H           5.14948324744101   -0.07813511020684   -2.60094403621458
H          16.47260090267715  -12.26505537031914   -0.08521121075963
H          16.79119213415505  -13.36102714227883   -1.43657383321439
H          15.51293169220350  -13.73484154256274   -0.27408605556020
H           4.29298576112010    1.67746553582585   -4.96313528518481
H           3.97835146900328    2.03045863322153   -3.25922058949226
H           3.21609111487450    0.63153980776849   -4.03379904308500
H           4.98380688051852   -1.80866928011156    3.63704394456574
H           6.54682468728711    4.61930802381059    1.20082894244114
H           8.22049874780019    4.16318717361559    0.79806412687868
H           7.31952121842268    5.06830914164114    3.58099091784666
H           8.18538536432229    6.08624270706036    2.41509487438443
H           8.95842800239814    4.64671953222670    3.09868976378129
H           2.63374837599088    0.54614815708938   -1.24086239882565
H           3.71754247472279    1.72591136217152    0.82264823239083
H           4.39697807367921   -3.83815533780159   -0.73983924668460
H           2.42569286418021   -5.26899915572639   -7.44321026789486
H           0.47597377670540   -4.37088567918724   -6.78061822501787
H           5.36251558145574   -8.04418294948734   -3.15219786121748
H           2.41953945247918  -11.12789020759410   -8.31653516863556
H           4.18507728984001   -9.73979567956735   -7.02830942533382
H          -0.04299850782929  -11.55459522024600   -8.24105453626459
H          -1.04741422357951   -4.80123138196017  -10.41392020074870
H          -2.76874392979763   -5.13879547919133  -10.73619901766581
H          -0.42726407006113   -5.99424540678360  -12.51995140371199
H          -1.47314117695155   -4.60460476960167  -12.84409451655903
H          -2.13972285089387   -6.24142093587231  -12.88705538652888
H           9.39544612142281   -8.53699701326352   -0.21698844973434
H           8.04046191622854   -8.73756584182756    0.92484147224925
H           2.55827329252819    1.36653752342369   -7.11799381559326
H           1.00747638340849    1.33708008632513   -6.23482723389351
H          10.81874111939945   -7.63982753405021    1.60662968289737
H          10.22268596763083   -9.24434728462109    2.03726423496285
H           9.48428811575685   -7.80215255041715    2.75414673216941
H           1.61760618002430    3.10528017148052   -8.66457398410285
H           1.57143684787381    3.66597235110512   -6.98806393702487
H           0.09752926500592    3.07639415613710   -7.76550127507703
H          -4.26582387086834   -8.19448986321493   -7.66350214048314
H          -3.28754305465349  -14.48935283555336   -4.50219731337691
H          -1.94582826197976  -14.92232747169184   -5.60534673362632
H          -4.92908436024537  -15.08884248048451   -6.28174319781218
H          -3.89073474334387  -16.47092231947443   -5.91010011797061
H          -3.60260053905951  -15.51715371766077   -7.37079497790193
H          -5.30694931962452   -9.38865886118239   -1.99129653694630
H          -5.21359071684433  -11.04390891586335   -4.00591039208028
H          -3.94787354248649   -5.21312628577657   -3.98922116518126
H          -1.36358968077106   -3.15569680011232    2.32736639648196
H          -3.01238530715317   -7.50731997077883    1.39704387215428
H          -4.94807400322617   -3.09126002740502   -3.98430527701922
H           1.30279897470402    2.25883697530378    1.91064573767785
H          -0.32936983175444    1.03095993676208    0.28116297204945
H           2.27545081217351   -1.05959752006238    5.14095191938443
H           3.98336356383870    5.10737657735832    1.93539992690953
H           5.09565922878844    5.53824336637085    3.26970209512753
H           2.03946067250958    5.66796190060692    3.39878476828427
H           3.09835984362250    7.06914294863453    3.18461407804432
H           3.14555148971046    6.14700791496264    4.69190291193270
H          -3.03967760006549   -1.20301939232478   -7.91795376235150
H          -1.94203900219032   -0.00729808882177   -8.62902465062641
H          -2.64012810874678   -7.49440278798152    6.28353922255434
H          -4.36036737688923   -7.95953685334561    6.26970926120694
H          -4.62999811218409    0.65024641327758   -7.30642276442655
H          -4.30813885827105    0.65770228425132   -9.04083778107827
H          -3.50629104525542    1.83122475227321   -7.98904661240892
H          -2.97297834014868   -6.36259613998815    8.48663455454796
H          -3.43960243846035   -8.06587784572506    8.59269949592622
H          -4.67975024976656   -6.81232173148191    8.46757724903995
H           6.74907393315474    2.04636995608348    5.93886298008496
H           5.32863811728045   -4.23565713965465    8.99050214440112
H           3.79422119605542   -4.40025767852675    8.08280160010482
H           4.20700721385996   -2.68571068235843   10.58680493944971
H           3.35312772552093   -4.23294975604305   10.53461636277344
H           2.69745027433163   -2.83180946128969    9.67733641895971
H          11.48315105282721    0.75638637707993    7.27363231230726
H          10.71390167104201   -1.31180154444935    8.68825780252639
H           8.12013280675662   -1.61824453069613    8.57909186122412
