221
 SCF done       -360.998184855451          0.000600515318
C           0.70455240315916   13.20942837347219    5.37331350281516
C           0.95221044553631   14.51528555068031    5.83078071497165
C           2.25238055685088   15.06430290500088    5.74481869399410
C           3.34539904952252   14.37525616380928    5.22425375974478
C           3.10608920498764   13.05000196566787    4.81055438470609
C           1.80349646492230   12.50425860440737    4.89750100961151
C           0.02839108687693   15.43423803687041    6.41086331661191
C           0.58858582667500   16.62154861470428    6.71508910225306
S           2.27355201960725   16.70728745958882    6.33291093095823
C           4.02980116412261   12.11145414345565    4.29156891101828
C           3.47709705587756   10.90997021441820    3.94777763801452
S           1.75762499013033   10.87724810595607    4.28174354918688
C          -0.62960731490613   12.64160904344090    5.37584199282269
C           4.64081529926697   15.00942776208186    5.09440332018610
C          -1.80047254346584   13.22873947824207    4.98932351134762
C          -2.91513178110337   12.37209843753860    5.09581015355649
C          -2.60464945745682   11.13612106038429    5.57171111361614
S          -0.90620569094703   11.00161506350581    5.89038258437025
C           5.25076089111647   15.87529190745716    5.95866395492254
C           6.49454237360197   16.34574171511647    5.49423698176120
C           6.83594420347870   15.86151065357595    4.26912739960281
S           5.61836430805424   14.78687082425803    3.66789137327330
C          -3.50237639210255    9.96764761053284    5.79120003223889
C          -3.18649627338428    8.83492021018593    4.81288050259996
C           8.07811882588478   16.10377959814996    3.48345639453847
C           8.99564063932463   14.87929666099666    3.50854626048335
C           4.17950973804114    9.80191844826002    3.38638010126941
S           5.91192201104851    9.94351580735614    3.22561633299210
C           6.01346451673899    8.38015650871255    2.48717153958884
C           4.77129063212193    7.80009931233096    2.38613396610719
C           3.72807899279510    8.58981319436911    2.89110079105364
C           2.31193957916802    8.10717103906179    2.89454623495647
C           1.96027267152288    7.44508945130390    4.22813972780264
C           7.24169024914132    7.83277266370116    2.03223531379355
N           7.33092773625440    6.73078521981219    1.34856935891540
N           8.54779265267801    6.40486577263905    1.00021711858435
C           9.46478666883619    7.23478294980756    1.40078682635517
S           8.80789360033823    8.59005312113353    2.31610400865079
C          10.84519662110624    7.08322481973732    1.10546390419626
S          12.06453891599521    8.08974097247488    1.81039748567641
C          13.31223992785596    7.26097616378872    0.91867633835805
C          12.78578593901939    6.25722516334655    0.11870080931334
C          11.39299790728690    6.16392049165192    0.24074584591273
C          13.61982892367205    5.37825661666326   -0.76193299479454
C          12.84247345577180    4.24585099517251   -1.42071926027360
C          17.28621297505147    9.57253346422002    2.88541446374486
C          16.50683801202263    8.78448005568176    2.01403112305183
C          17.11265407686264    8.13506293483274    0.91146509334257
C          18.46113755920365    8.25059450210206    0.59765520010257
C          19.22262788002088    9.10228130839065    1.42343426912827
C          18.62515644230769    9.72442441658195    2.54611776019786
C          15.11658836911989    8.53145183215270    2.07268759580503
C          14.66211736595676    7.68047970657708    1.10394933082566
S          15.95853490409912    7.16025705616956    0.04478071020137
C          20.58450423058625    9.45662737973804    1.28975477610619
C          21.05194006896227   10.26973727684470    2.28477249998857
S          19.79317662860130   10.65626874721920    3.44230083210643
C          16.71514705553829   10.16162612001287    4.07852365245419
C          19.06768810238597    7.53094416242937   -0.50272081243189
C          15.83828619359486    9.59494995668343    4.96078504647669
C          15.50167580748267   10.44236630707308    6.03473562766219
C          16.10787850519703   11.65908974599255    5.97528351085612
S          17.12990423387606   11.77656226792304    4.58020656474268
C          20.27747530610472    6.89550233555223   -0.53374187466804
C          20.55397342560603    6.28207417864923   -1.77152076725749
C          19.56715432358763    6.45232905543115   -2.69282601077757
S          18.25444053846847    7.37238960454746   -2.03461245263026
C          16.01840151661651   12.79208820646722    6.93820978864023
C          17.33638750153736   12.98436747252313    7.69079627651811
C          19.49211330992089    5.92877197051238   -4.08536581125375
C          18.45653025357518    4.80833718551394   -4.19945677059601
C          22.38330852281331   10.76535370816599    2.39953777121875
S          23.47756071236119   10.47849731336508    1.07362522767899
C          24.76592141241617   11.26579174692172    1.92086260163073
C          24.35229389299276   11.71750730536818    3.15279238210285
C          23.00551599792225   11.44961931844111    3.43388852704680
C          22.30724503791157   11.84139178338110    4.69975021741785
C          23.20968825958265   12.52005681811350    5.72205883118275
C          26.06815122381334   11.38359850162878    1.36771129844335
N          27.10877092483508   11.78494107529120    2.03470332198613
N          28.21861139197865   11.81451602589768    1.34380513490977
C          28.09270885228641   11.44460798126401    0.10410868861004
S          26.44055129349215   10.99354200924467   -0.31110243149384
C          29.17143878072503   11.38228127045527   -0.81740348671604
S          28.92489776302627   11.12989846000517   -2.51257065439209
C          30.64269898320827   11.17619566790319   -2.80435352866261
C          31.35354532654766   11.37372605971828   -1.62983413526304
C          30.50906578137476   11.49815509810849   -0.51809574855471
C          32.84851816654881   11.44955792672937   -1.57227596289521
C          33.39715854967977   11.82919534569834   -0.20287391843881
C          30.53162682086825   10.93654348504123   -7.79517146707314
C          31.03007945036288   10.88819805586179   -6.47758041528439
C          32.39999669208199   10.61711989435580   -6.24619686636154
C          33.31505788852902   10.35232667639396   -7.25966945933038
C          32.80127885277906   10.33640203464956   -8.57249675378042
C          31.43571158399854   10.63003683112622   -8.80474117392861
C          30.31947030246143   11.08052715638035   -5.26985304782281
C          31.09749959177645   11.02598041265428   -4.14763898621046
S          32.77485696465805   10.70285932614481   -4.54586970531640
C          33.48360967066135   10.04325946826594   -9.77571044734613
C          32.71064155630147   10.14238039123398  -10.89884426868158
S          31.06580758877929   10.59799377923548  -10.50531289077178
C          29.16335616303158   11.32129765839058   -8.07074202853563
C          34.71419456421231   10.12041968878156   -6.96670503419707
C          28.43423260406080   12.31835736536206   -7.48486482664265
C          27.13746616334335   12.44910073759685   -8.01946988740406
C          26.86497614059557   11.55172999994118   -9.00543698562018
S          28.22723400881003   10.52277535658423   -9.30300291478727
C          35.25250645036029    9.43221084131683   -5.91512734952375
C          36.66085623323097    9.42894904735963   -5.91085070656674
C          37.20892915367744   10.12627690046980   -6.94298450602417
S          35.97733293785579   10.79539050842836   -7.96011993674458
C          25.62695594336297   11.41178678746181   -9.82176280962556
C          25.86582871574135   11.85630604944160  -11.26614708959859
C          38.64723083366894   10.30799448551883   -7.28501351857292
C          39.03516006506955    9.47096499929072   -8.50598070442877
C          33.14648531052489    9.88441216750068  -12.23242999054253
S          34.76273614863314    9.26008355839900  -12.44528971646951
C          34.56099165569586    9.20685955519009  -14.16452922616742
C          33.31452803284064    9.65681198095725  -14.52987133593144
C          32.50717438523014   10.04468375659651  -13.45045307169722
C          31.10962956944106   10.53799915445772  -13.65515406813137
C          30.10358476993007    9.38800887483347  -13.57947946666703
C          35.58320503918308    8.74303751901776  -15.03409199993910
N          35.45998695354069    8.67520834257209  -16.32555310073462
N          36.51360892641253    8.21185244954504  -16.94779362801687
C          37.50506903034633    7.89745351241433  -16.17031542985465
S          37.15770430468783    8.18680630799642  -14.46789974683393
C          38.73971236669120    7.36984034781441  -16.64169058492297
S          40.05002804353221    6.97743074352413  -15.57266185978894
C          41.00609021208951    6.45767785140769  -16.89875993500601
C          40.36451261422912    6.57175434674749  -18.09800456784502
C          39.06502605640043    7.09793574100879  -17.94689973488680
C          40.97102591137424    6.22612667510261  -19.42144599713103
C          41.40728653730361    7.49014056798362  -20.16358970421143
H          -1.00111382177779   15.19381987008646    6.60264831629275
H           0.12119325117966   17.47820641740214    7.15993604479983
H           5.08039127538438   12.30782793647663    4.17755389124879
H          -1.85516870708252   14.22941759002874    4.59872188136808
H          -3.91424143046634   12.66625849388543    4.82587258157886
H           4.84012477386969   16.14047821312960    6.91601514269080
H           7.11371190630497   17.02663093913108    6.05122908991157
H          -4.53755481074756   10.29098782936946    5.66280352404324
H          -3.38369318833111    9.59945408538630    6.81373815638656
H          -3.31499471001076    9.17394934247525    3.78736269912522
H          -3.84810542645944    7.98987968988317    4.98625879439194
H          -2.15768922445500    8.50570299254931    4.94091676517731
H           8.59957775731792   16.96477628334855    3.90723184602044
H           7.81953713943100   16.33538123126955    2.44712289389204
H           9.27440708725231   14.63650409733434    4.53158358330174
H           9.90023671321867   15.07346988656277    2.93785110216881
H           8.48889578362146   14.01956717687476    3.07561402427103
H           4.63542814941609    6.82726062598636    1.95009361669866
H           2.19398120172727    7.37850763298358    2.09032024014937
H           1.62636774561144    8.93457125647994    2.70625083360915
H           2.62354990903898    6.60420426015221    4.41800623925378
H           0.93558563954832    7.08329226311352    4.20681192383912
H           2.05759365157349    8.15491467010056    5.04555327884530
H          10.77270729669429    5.46026186202405   -0.28047607557788
H          14.43503602443574    4.95614835671185   -0.16664274931370
H          14.08270861803026    5.99670677379978   -1.53760481837731
H          12.36741802492637    3.61701218620839   -0.67163422361151
H          13.52230028757708    3.62955485421174   -2.00426899253770
H          12.07848641465907    4.63572935944479   -2.08852211989330
H          14.46173062601709    8.97929038070162    2.79832452777108
H          21.20315546235829    9.13596707162156    0.47105913899162
H          15.48033306771853    8.58518843065060    4.86733455468181
H          14.83041507765832   10.15609800643164    6.82521932808157
H          20.93029696631464    6.83108566754063    0.31844626532083
H          21.45811629391164    5.73407685633211   -1.97047974711775
H          15.21348050096158   12.58719048027138    7.64721788952646
H          15.77568769137773   13.71304854737390    6.40175147175499
H          17.58993952536410   12.08388304762460    8.24578921893714
H          17.25515308837549   13.81316814642994    8.38953998709820
H          18.14089092037444   13.19565736033944    6.98983335215098
H          20.47634629621684    5.55374684883471   -4.37365051642785
H          19.22005785291256    6.73756443842878   -4.76827926753625
H          18.71679349396500    3.98422870581881   -3.53901967152055
H          18.41283697227952    4.43667900218282   -5.22010996412833
H          17.47240602385284    5.17736904964646   -3.91940785867149
H          25.03023719033322   12.22818602228273    3.80953345591414
H          21.86440266837361   10.94663550087154    5.14805278039602
H          21.47857870362498   12.51145334338973    4.44956716014848
H          24.03309817607657   11.86856009032219    6.00435993455349
H          22.63557735896952   12.75246131611837    6.61587977948126
H          23.61471186938213   13.44808287919675    5.32627997629964
H          30.83651179062397   11.66154362242875    0.49073502123898
H          33.19314197549807   12.17722164958226   -2.31306093365312
H          33.25973585378860   10.47922907984126   -1.86843121182141
H          33.00423269399272   12.79118507309189    0.11708897349690
H          34.48105265294539   11.90104380750589   -0.25262263225360
H          33.13962903305020   11.07900940363843    0.54056024720485
H          29.25701977352952   11.23898989133477   -5.22578959887313
H          34.51775046819778    9.75384333175388   -9.82092963303522
H          28.83091443861877   12.96959658250685   -6.72656812575313
H          26.43118166196766   13.18727915323091   -7.68235265956219
H          34.65943676544191    8.90890127446138   -5.18718212458901
H          37.24821961778343    8.92612429831607   -5.16294963963536
H          24.83900340855458   12.01997634652015   -9.37259159293948
H          25.29892645409271   10.36919980346741   -9.81853241519601
H          26.17862512479381   12.89766834095563  -11.29446807328022
H          24.95504940068833   11.75007716099676  -11.85004887566345
H          26.64569142475566   11.24943437155325  -11.72080166972236
H          39.25251234639617   10.01020691221332   -6.42613054277772
H          38.84624466374824   11.36172363090162   -7.49615165321475
H          38.85857606635285    8.41528784387587   -8.31256239950607
H          40.08729899998914    9.61074891438247   -8.74058134364179
H          38.44381637174325    9.76711749955937   -9.36955921191386
H          33.00821316398026    9.70094674256115  -15.55906004227333
H          31.04908238932243   11.00246161142155  -14.64130975998508
H          30.85844458750053   11.29239848517900  -12.90831082977888
H          30.33110369980777    8.63804041493809  -14.33356691565643
H          29.09693986079685    9.76058122562651  -13.75026702639008
H          30.13428719979597    8.91636421323681  -12.60067738264228
H          41.99646921600382    6.08951374161617  -16.71551972171692
H          38.37745678383347    7.27148153685929  -18.75383112871875
H          40.23497186009774    5.68949107741487  -20.02367714841596
H          41.83303237322288    5.57407643855318  -19.27008010918928
H          40.55671815033817    8.14769731211381  -20.32587729808641
H          41.83671194808614    7.23232727826725  -21.12857415152947
H          42.15309825765442    8.03027362999307  -19.58468902743017
