236
 SCF done       -422.357676435085          0.000282615798
C          -1.63659538617061    7.68770451637245    5.48387990521348
C          -0.76715568881671    8.32508795844496    6.39983094656501
C           0.61358357575518    8.33265725060366    6.26400562561147
C           1.13845648929625    7.63077429541599    5.16760594035084
C           0.27314965321643    6.98851497027455    4.24931638627050
C          -1.11252985845838    7.01798454075590    4.36242300519609
C          -3.00031350674234    7.81854957072050    5.87999796969121
C          -3.15428203269183    8.54204130449698    7.00753426959269
S          -1.66387144454453    9.11118771548839    7.67553864312109
C           2.50278219432077    7.44680409531856    4.82764242525001
C           2.69170099473965    6.72643983534104    3.68607721097901
S           1.17326427642307    6.21751429746816    2.96880283605458
C           1.48763139108921    9.04352819534591    7.20628385514052
C          -1.98400997505818    6.41075026215538    3.37760141325428
C           3.93014862095342    6.38040139342518    3.07522461108415
C           4.14297829711231    5.65842592444166    1.92107081613537
C           5.49265895231114    5.50885575453390    1.60616976653809
C           6.33725821328593    6.11347628031004    2.51439100138412
S           5.42992431853065    6.88499041670747    3.78430399381226
C           7.76780778305672    6.13737432126409    2.48025084311752
C           8.55892310014593    6.75098987618252    3.44260941643087
C           9.95837606570596    6.76429464015375    3.41418838805749
C          10.72216649802997    6.17061508253930    2.41740592347277
C           9.94429688719197    5.54091092558950    1.41230709303959
C           8.51671548275182    5.52229736073255    1.44428708170092
F           7.97729700266559    7.37840442581498    4.48443563775444
F          10.56868165425758    7.40060271566762    4.43431264718197
N          10.32384906292777    4.87335184859036    0.31435457098117
N           9.20695828537193    4.49769276080342   -0.24263116594594
N           8.10653376122047    4.84420315945810    0.36401135671002
C           9.18727619899491    3.78321090371056   -1.48701600322963
C           9.08340204628379    4.75634266511200   -2.65759626560739
C          12.15302022626306    6.17575858968811    2.39494449340772
C           1.36299772488133    8.81348121411353    8.59338132249335
C           2.16543257186809    9.46761348214825    9.48179417100086
C           3.13740545051744   10.38999102889030    9.04052974648436
C           3.26862741641896   10.62768092307771    7.64715082557991
C           2.42683963393284    9.93919024369271    6.75338343722075
S          13.08778007793923    6.89862296535694    3.67209173589360
C          14.57390578264887    6.45826638125038    2.89286013017968
C          14.33585715108656    5.79402862322629    1.70914915870748
C          12.97884348308140    5.63502067380021    1.43045110172201
C          -3.13350205882749    6.91335506287148    2.83447324014374
C          -3.73947670568568    6.05985413126758    1.89676223339683
C          -3.05180581450052    4.89160453149271    1.72578365261141
S          -1.62861764239726    4.83582070670713    2.71857710794807
S          -3.51228473516721    3.59468866799224    0.65347237319513
C          -2.14618696554901    2.40757963902078    0.93909222436214
C          -2.34642937252926    1.17928686252578    0.07451018129150
C           3.98285948775363   11.07933908119640    9.93333693677845
C           4.91725745431142   11.96210738871662    9.46850882754857
C           5.04880693957156   12.19575011741074    8.09034000365321
C           4.24279714416463   11.54504919064991    7.19941224677672
C          17.33825441201291    7.57611742241173    5.08236510647221
C          18.22535551933046    7.06511320755155    4.10206125415302
C          19.60500323289168    7.11076742004705    4.22645166502176
C          20.11327765552612    7.72099676101498    5.38811770773974
C          19.22737530201499    8.23396333297437    6.36746916177771
C          17.84409738859172    8.16257397334904    6.25912962517757
C          15.98554895855839    7.42090725643179    4.70233769290835
C          15.81497392549463    6.77941944295676    3.50961073189958
S          17.34619294456834    6.34755604757856    2.77159646146441
C          21.47007174115779    7.91604638743577    5.75192162262936
C          21.63022866798706    8.51625138346484    6.96658866626075
S          20.09423138110403    8.90052322898818    7.72170892793916
C          20.50299495726361    6.55127525532722    3.20757399639333
C          16.95602866755912    8.64404206389328    7.29614014912247
C          22.83487019619852    8.82606473113273    7.65848129533585
C          22.94085383723392    9.46539115780637    8.87445998644099
C          24.25440000026133    9.59580263691454    9.31785946641064
C          25.18061671878296    9.05530781076928    8.44962903883966
S          24.39979670119426    8.38018533952847    7.04594883463025
C          26.60398889432595    8.97937080891971    8.58285218015371
C          27.32996426624779    9.43349650818365    9.67811840919098
C          28.72243263345991    9.32496817435690    9.79717319952603
C          29.54338858629552    8.75383872681432    8.83229950807194
C          28.83194219938484    8.29365042708220    7.69899126179956
C          27.41697137470396    8.39891045003785    7.57992568237902
F          26.70253273551909   10.01666565110120   10.71869373992689
F          29.25053629929273    9.82314148634130   10.93274593495747
N          29.28110558454510    7.69476212417916    6.58984665490083
N          28.20816728256951    7.47198430510275    5.88278133133807
N          27.07721683919250    7.86010916912730    6.40214595313707
C          28.27515266643212    6.85622535975752    4.58824335665460
C          28.95613852986081    7.78875589264176    3.59261789864465
C          30.96562264614555    8.62234850493498    8.93379339805783
C          20.33908875612762    6.91163633201771    1.85240523194454
C          21.17304793636687    6.41516382212906    0.89370505546933
C          22.22183425294240    5.53319153277774    1.22916757154433
C          22.39059697613358    5.16180604612995    2.58886806313650
C          21.51045715611913    5.68335225164973    3.55567628329990
S          31.88652424008263    8.05101810645014    7.57065089841903
C          33.36956600959360    8.18996611751090    8.46884318358357
C          33.13358951263712    8.64304484570886    9.74849815863019
C          31.78759064442314    8.88894225075640   10.00879671467740
C          15.82252866494267    8.05411340870915    7.78108701503976
C          15.18428815631697    8.79044279876717    8.79583152820684
C          15.83202685173099    9.95826572680199    9.08063970058051
S          17.25338199638787   10.16183950518561    8.10767437255516
S          15.44840208040964   11.20862227433193   10.23664009660926
C          13.77299854091902   10.69636103665130   10.77882483941621
C          13.19820696342170   11.76175557745650   11.69176728018188
C          23.10873873385960    5.01394923655622    0.26432310413654
C          24.12011550145421    4.16949952022891    0.62848992167881
C          24.28945123828149    3.80462648078631    1.97371674452446
C          23.44337996780996    4.28708882026543    2.93212482855061
C          36.30564760768122    7.30063025890014    6.37849136134966
C          37.07156812388222    7.48007540252859    7.55786408394097
C          38.44518935803558    7.31447661629852    7.61581471391596
C          39.07890750891138    6.91087816728286    6.42945688059333
C          38.32396879845352    6.73469880007560    5.24450799622419
C          36.95022724291679    6.95039275722236    5.17261776265977
C          34.92449438132192    7.50640070268920    6.61661621144302
C          34.63513216384406    7.87822989320547    7.89818263936619
S          36.07196472299125    7.97088123691288    8.89927008653071
C          40.45438606536701    6.62659645809666    6.23749654260149
C          40.76590496652025    6.27253584495645    4.95717478014451
S          39.35422285664244    6.26478709361669    3.91889534582373
C          39.20392035856840    7.55757365943608    8.84999247451364
C          36.22253985718908    6.86012504774046    3.92629854346945
C          42.03915729078060    5.93222562053521    4.41541162693893
C          43.26645866159029    5.94392785956169    5.04402338696197
C          44.31568708711786    5.56466514285921    4.20702552511508
C          43.90908866237871    5.25329551116060    2.92640903271869
S          42.18826688389981    5.43226687943502    2.76054208929093
C          44.67916101814023    4.84259859559339    1.79082936453454
C          46.06055189088355    4.73052501843578    1.73290728502824
C          46.75621319043055    4.34628233730132    0.57585025301696
C          46.15518346961947    4.03825145935929   -0.63762598258352
C          44.74099597749276    4.13428251282837   -0.60855615181677
C          44.04154984562008    4.51914203205020    0.57036929602695
F          46.81175560197485    5.00305777990535    2.81757670610102
F          48.09880514627571    4.28954505143072    0.68388673448350
N          43.81580350355998    3.91609189733043   -1.55648356079677
N          42.67757122544581    4.15387901309509   -0.96547817273408
N          42.73563002255533    4.51090909949166    0.28539477072572
C          41.42123229572088    4.01493987519316   -1.64808344579383
C          40.53749858007046    5.22542547693100   -1.38080545113845
C          46.87017129324784    3.66013408213286   -1.82259396990002
C          40.31216932080175    8.43276385509927    8.83058875087680
C          41.02518511040357    8.67748571337795    9.96767887149765
C          40.67733432926988    8.06298078226097   11.18950977816358
C          39.56072828318695    7.18711500694481   11.21798109445474
C          38.84217766370155    6.95443662367437   10.03001316708187
S          48.60575149897069    3.52377109926844   -1.86844922220218
C          48.56102365011907    3.07684077271876   -3.51953354357852
C          47.29256045607909    3.03312923261705   -4.01380224214374
C          46.32699516579332    3.36399579183719   -3.05127712192415
C          35.19782078094342    7.64817173220110    3.47518113592617
C          34.75147600165133    7.31932695029713    2.18449619619761
C          35.43809670221057    6.27053909548538    1.64059272865647
S          36.64595039806370    5.66398166477984    2.72951393700144
S          35.16440806934874    5.58180229090279    0.06126829523019
C          36.62248677902955    4.48035650414127   -0.08733916190269
C          36.67030631482874    3.88045046985723   -1.47833637302775
C          41.39668695192236    8.29178804511939   12.37993067185338
C          41.02702295812434    7.68222342581463   13.54632002493085
C          39.92127453369375    6.81759578861033   13.57540350204208
C          39.20442757465713    6.57441830616790   12.43780434047778
H          -3.81763043166331    7.36712215324725    5.34841706004977
H          -4.06761257028993    8.78361239062336    7.51535584348344
H           3.31926566163675    7.82411939996920    5.41750445952318
H           3.33589910410558    5.25752818810382    1.33350365795944
H           5.86475877931895    4.97986832708932    0.74889555267433
H           8.32535981044774    3.11351863849244   -1.46990642972844
H          10.11146748470115    3.20595266457311   -1.54753880021944
H           8.17360983101009    5.34572235339113   -2.57470905145380
H           9.06132217640998    4.20615125488555   -3.59371889561890
H           9.93822323247531    5.42806502989749   -2.66508089455897
H           0.63581673967359    8.09503198007843    8.94141443796719
H           2.06898552844130    9.28244149924623   10.54216475899371
H           2.51511127482952   10.14252487582576    5.69520357713785
H          15.13026165829328    5.43728157874943    1.07749594672080
H          12.58814250800088    5.14208071627248    0.55996961422363
H          -3.51225997781470    7.89154273058187    3.07161255451524
H          -4.64274528208061    6.28971520625168    1.36245155609317
H          -2.15380831150838    2.15347050512555    1.99961951712901
H          -1.21492248966700    2.92025120089720    0.69526495600666
H          -3.28860501961670    0.69297976197660    0.31611946746059
H          -1.53523891260161    0.47479765055970    0.24414645601547
H          -2.35928214504591    1.45208054898743   -0.97810177992751
H           3.87829571746499   10.89529948362700   10.99333098084048
H           5.56271277739049   12.48657351586518   10.15802162089642
H           5.79460139230549   12.89481793056249    7.74108663483399
H           4.34154062566677   11.71976429194282    6.13743888752019
H          15.15611419267428    7.78781211654799    5.27901091184755
H          22.30327891001165    7.63345585948583    5.13357608322282
H          22.08408062699036    9.82189344890883    9.41854189526576
H          24.51298135101203   10.06919310298477   10.24576911902464
H          27.24909155642287    6.63635356193315    4.28938395412226
H          28.84576378530475    5.92852427464691    4.68081537939583
H          28.38603169870281    8.70798550499184    3.48289399973076
H          29.02865869815338    7.30430972847814    2.62334761690822
H          29.95597307011516    8.03283997032730    3.94255500607379
H          19.55481518789437    7.60457524556274    1.58670365943049
H          21.04503092836553    6.69971150451158   -0.14101966752641
H          21.62786882010077    5.37494779232768    4.58501783486527
H          33.92219602568025    8.79374720968761   10.46456718792913
H          31.43050981614655    9.24547742206569   10.95622268209250
H          15.47330980322863    7.09088204750184    7.45457078751962
H          14.28964511777754    8.45611792940793    9.28716666331561
H          13.87023624218003    9.74374937642592   11.29963602233209
H          13.16512093494680   10.57249141620218    9.88287907635448
H          13.83429239723846   11.89987464408064   12.56296404607776
H          12.20644837367887   11.46480165424618   12.02585388897915
H          13.12136237742532   12.71114351670535   11.16716510685281
H          22.97454913880704    5.29809986624446   -0.76987227403148
H          24.79713873937049    3.77605201461502   -0.11576048581633
H          25.09500516112835    3.13689376911792    2.24318731018879
H          23.56913257259917    4.00953630691287    3.96921932711192
H          34.15675131277236    7.36357590110813    5.87829731369124
H          41.17707937314731    6.66849286663246    7.03161228473790
H          43.39960704349953    6.22250518170342    6.07361128817673
H          45.33919769355387    5.51954578108033    4.52968815920881
H          40.92888183793070    3.10565783966805   -1.28718201345525
H          41.64886792728971    3.90076741950498   -2.70929661457422
H          40.38525229416842    5.33693164771743   -0.31037713355204
H          39.57687586314658    5.09650537931378   -1.87040339536720
H          41.00581927108103    6.12979477306654   -1.76086067912181
H          40.57203823967868    8.92378387000099    7.90380968470259
H          41.86880280173310    9.35312090086510    9.94836909526651
H          38.00556737958386    6.27102899574072   10.05584505945880
H          49.47957877539668    2.87114691423263   -4.03273224681135
H          47.05812770259380    2.77353599594358   -5.03066532599982
H          45.26878850776726    3.38999648138055   -3.23107575435785
H          34.81082561862179    8.48199981854250    4.03244486857251
H          33.96788394747193    7.83869442028849    1.66419208547916
H          36.52677130657850    3.70723548735144    0.67562361115852
H          37.50596184951272    5.08556263940677    0.11842985250676
H          35.76628770200979    3.31020127889485   -1.67803214560744
H          37.52709822950374    3.21554908162876   -1.56355579583452
H          36.75372046202693    4.66314921682598   -2.22906269616444
H          42.24657942858303    8.95911113309496   12.35302515823943
H          41.58260444138402    7.86150766712937   14.45518684646747
H          39.64289386410523    6.34627535597903   14.50669132330102
H          38.35152714838555    5.91100355012229   12.45416097505108
