248
 SCF done       -433.435719923750          0.000382501279
C           3.57164083227137   -0.99962727713096   -6.81036120035343
C           3.81655510203108   -2.36266239883737   -7.02715863497301
C           4.91182427293860   -2.99881870970524   -6.39560028785683
C           5.80121215088818   -2.33496788111245   -5.56399267341297
C           5.56172377143847   -0.96804466989771   -5.35462784367887
C           4.45853405563700   -0.33449474209046   -5.97904630795919
C           3.10387145169376   -3.26146430233134   -7.87625544752666
C           3.62395350290449   -4.50494566243834   -7.87770841831726
S           5.01001835176462   -4.68072454319731   -6.85422465336727
C           6.27976069407033   -0.07467152686758   -4.51965361054018
C           5.76473146997130    1.18723105519564   -4.49640622041617
S           4.34541759851328    1.34486636479750   -5.51827739035065
C           2.42390202684727   -0.31491250009535   -7.42483109604574
C           6.93389101249854   -3.02045128594098   -4.92561693727646
C           6.24902157201901    2.30520812120385   -3.75863364839218
S           7.77272303340435    2.22604953627532   -2.93494259872232
C           7.57557181219844    3.84630186444599   -2.33056527543269
C           6.38674809395223    4.39234112596532   -2.76784806613609
C           5.64725454942219    3.53098846309108   -3.57675514581185
C           8.54486728453382    4.46677647390444   -1.47873389881230
C           9.79835016165220    3.93690323978255   -1.20353300534402
C          10.73606580217520    4.54386447299185   -0.35796825024772
C          10.50819735976181    5.72895829288292    0.32791013310636
C           9.23681324399212    6.29919684362612    0.06621805158389
C           8.29369605948353    5.69721883338232   -0.82012645469503
N           8.68113639853952    7.42760135551730    0.52850208505937
N           7.51098862444885    7.47365352849151   -0.04408416854718
N           7.21515804278054    6.49192628645045   -0.84881779324663
C          11.44128301864964    6.32769396282346    1.23482512096642
C           6.61610456057194    8.57710086404823    0.15769983579974
C           6.90621177087875    9.68712316156542   -0.84819454904148
C          11.18788975365343    7.35716624937383    2.11740920095385
C          12.28897004634261    7.69626565749413    2.90186364134936
C          13.40989178255201    6.94594835838256    2.61699977512596
S          13.08884368542950    5.78884164371493    1.36932112236714
F          10.16761738252171    2.77039270704061   -1.76888711478225
F          11.91121439993728    3.90195044091018   -0.20556326612085
C           1.13232629709075   -0.81180421410066   -7.25468684592154
C           0.06477304623541   -0.15133520263376   -7.82669943023725
C           0.25370966647531    0.99856936706260   -8.57714686002022
C           1.53856437708072    1.50128880267461   -8.75233992539619
C           2.61696528605453    0.83828583800286   -8.16734114668407
O           1.85273204296401    2.61274751294677   -9.46796379922594
C           0.81722623331148    3.34250506868144  -10.09401248714062
C           1.45468866406854    4.51659334907413  -10.82039948500140
C           6.72848451185068   -4.18986431841012   -4.19498207218735
C           7.79871072987988   -4.81428600371903   -3.58831188928408
C           9.08082561759215   -4.29933009648511   -3.69196116881455
C           9.29708781335278   -3.13517267789072   -4.42258885375093
C           8.21580919537647   -2.50552718297145   -5.03816875001165
O          10.50144180973188   -2.53389870299912   -4.59843722576217
C          11.63840392338870   -3.06804442816353   -3.94972516004556
C          12.81518207430789   -2.15534959359176   -4.25635761775136
C          16.99932352971855    7.87836564863216    5.97609787489006
C          16.36785349704504    7.45370159336544    4.79563073193805
C          17.12922541891848    6.86926812201412    3.75210391356713
C          18.50786719896006    6.73745319100256    3.79897914879019
C          19.14092262634076    7.17527599662483    4.97379151254744
C          18.37407726546535    7.72131316914231    6.03372550219502
C          14.99412689490739    7.54855068533820    4.45964738139235
C          14.69503634845385    7.02843985514668    3.23405976944589
S          16.11280945877574    6.40559973635063    2.41314058908883
C          20.51665087528778    7.09422498495494    5.30483113964249
C          20.80612851440460    7.54084661146968    6.56011618854349
S          19.37686611117052    8.10435985553785    7.41030890060256
C          16.23843553522894    8.44577233425755    7.09894550346518
C          19.27560903457631    6.17362254573621    2.67961958050550
C          22.08043770254843    7.57983049589516    7.19534659276356
S          23.53501761630393    7.37252141620218    6.27492023863095
C          24.51022386218201    7.51800256236471    7.70918221494897
C          23.72074214620260    7.71747603072557    8.82235970370210
C          22.35823530175731    7.76572660454994    8.53182999345462
C          25.93963577749506    7.43717363191890    7.67382343605522
C          26.69650502232480    7.48256094336924    6.51088898499882
C          28.09631086618089    7.43466703153458    6.48644681673780
C          28.88713603837689    7.29861090372172    7.61920316528762
C          28.14296518950387    7.22245569238420    8.82364808156358
C          26.71839286961657    7.30851409917726    8.85167356301310
N          28.55639739939486    7.09291746146307   10.09168476368174
N          27.45934624761553    7.10422977204078   10.79569966249470
N          26.34226267262324    7.22648442440829   10.13512600188280
C          30.31803680632419    7.24274929098979    7.60208496719864
C          27.47779543272330    6.93789664858061   12.22096634357789
C          27.30745473395910    5.46652788466997   12.58726316045602
C          31.14525689428569    6.89865694207841    8.65063991972624
C          32.49936289244853    6.94404371771471    8.32367593008917
C          32.73262810017509    7.34191347974940    7.02517378704973
S          31.24575563168316    7.63856137873100    6.18368275686071
F          26.07970445517883    7.59664874020117    5.31786046307792
F          28.67831613543773    7.51857910163074    5.27346826972474
C          16.60757303839273    9.66970831529638    7.65465563144123
C          15.88974439683292   10.18465575709743    8.71423626732400
C          14.80579194718701    9.50239002791010    9.24324390379632
C          14.43220553648904    8.27835072925386    8.69824948103994
C          15.15461702071143    7.75969480654742    7.62453333880402
O          13.39191735800599    7.51521632013282    9.12859533761883
C          12.63079048322238    7.95523064415180   10.23513116522275
C          11.56718920802141    6.90438963434231   10.51238535715749
C          18.91853673194868    4.94861478922383    2.11824710494534
C          19.65481746461903    4.43645058318611    1.06966618396569
C          20.74784864014560    5.11922580492606    0.56065966300510
C          21.10991572194665    6.34435262723125    1.11167215359761
C          20.36437961385954    6.86350179596040    2.16935307294435
O          22.15540897260698    7.10928647607948    0.70478264548044
C          22.99510721718436    6.63610440001257   -0.32911260704858
C          24.10335533810368    7.65886703457153   -0.52393259185875
C          36.16268267260680    8.68761241438144    3.64258245176161
C          35.59242864114847    8.16902905092274    4.81720821389946
C          36.41749871119087    7.59412740611567    5.81687089267772
C          37.79073836017638    7.47083985584882    5.68894869614391
C          38.36025634756412    7.98437985764822    4.51198340566612
C          37.53792874235762    8.57638991320822    3.52047201835455
C          34.21956784904666    8.09939077037189    5.16088211292129
C          33.98675695632760    7.53065043053770    6.37850842578695
S          35.47145243617476    7.02787954166710    7.16977904471837
C          39.73160242810444    8.04437894437256    4.16561745716763
C          39.96890524336427    8.64258088067902    2.96241886303952
S          38.48905804255280    9.17448456345934    2.18413029606431
C          35.33761460189188    9.32979177268302    2.60949786525628
C          38.61582619164396    6.81803489639987    6.71549753394889
C          41.23189648346168    8.84071330709004    2.33703851267706
S          42.68718057547706    8.25746730733458    3.08654414965791
C          43.65095049946344    8.85686972376811    1.76749238706544
C          42.86143020857811    9.47105421604729    0.81806959623095
C          41.50366743474988    9.46122832636762    1.13816296481953
C          45.06916796648896    8.65821334181843    1.79238624870234
C          45.96531378407293    9.04786588522677    0.80725893593550
C          47.34708350267462    8.81379688065607    0.88151799252968
C          47.97949782508626    8.16976180979476    1.93636039851865
C          47.09084109211545    7.76086537918752    2.96232652920009
C          45.68960565520549    8.00457605059423    2.88349631614107
N          47.31134417917491    7.12431318884680    4.12292864271492
N          46.13074968800699    7.01487976472273    4.66679369160152
N          45.13210417313935    7.51112328369173    3.99417610912775
C          49.39218053885241    7.92900328850417    2.00857933502970
C          45.93904893193118    6.38095423843557    5.94051518237448
C          44.98820371631945    5.19731914102888    5.81260279930164
C          50.06893184875365    7.30285478781182    3.02929900102502
C          51.45128554517291    7.22087024298638    2.80351636051112
C          51.82238136366733    7.78091663695663    1.61883402050719
S          50.49284751059427    8.42103056385356    0.75206806883720
F          45.52985614012741    9.68508584026727   -0.29718642451865
F          48.07947977644337    9.25609924198762   -0.16056268645788
C          35.44001812950874    8.94113175468304    1.27490965524163
C          34.65614899834234    9.55762815609163    0.32137355153947
C          33.76651237619797   10.56257946733637    0.66561695407593
C          33.66064647622321   10.96094791680243    1.99432260636933
C          34.45261718618621   10.33824045195186    2.95801128591523
O          32.83174574459682   11.93215156561949    2.45788872969890
C          31.96903755598612   12.59058344687156    1.55196513016690
C          31.14017169801367   13.58681573444170    2.34746377315881
C          38.52981469290624    7.20347121017460    8.05214806257209
C          39.30924406107245    6.57051031580795    8.99839288437795
C          40.17687044583227    5.54905990151277    8.64519189726198
C          40.26370468956667    5.15232733587674    7.31510316437236
C          39.48085088657555    5.79514803636230    6.35793928912439
O          41.06959150414171    4.16229785343786    6.84311264320880
C          41.84300746753521    3.41243282168043    7.75650175079031
C          42.54639903931744    2.31517509452033    6.97255755513848
H           2.25250146371127   -2.96592814662621   -8.46226867984820
H           3.28204947648652   -5.36204139466362   -8.42467949485000
H           7.13733403609120   -0.36216473272061   -3.93816411642493
H           6.08292612257275    5.38595231393086   -2.49691348430335
H           4.69644321651383    3.77772011443645   -4.01516907738790
H           6.76181567910667    8.93830968616886    1.17736338113026
H           5.59906744401678    8.20131825518571    0.03257349529017
H           7.92895014669797   10.03767004098812   -0.73363476943529
H           6.22871577776885   10.52010112715363   -0.68453994240332
H           6.77208250360975    9.31924178742423   -1.86242029567045
H          10.22639017108468    7.83143069304344    2.17870470286520
H          12.27992737128949    8.47495324012654    3.64283179489461
H           0.97302283719324   -1.69798563797849   -6.65907802466891
H          -0.93725993180926   -0.53159848038710   -7.69060025540869
H          -0.60199634281600    1.48890269327798   -9.01378954290579
H           3.60693761979200    1.23717733970064   -8.32295082614038
H           0.10216139843824    3.70494929914242   -9.34189473243526
H           0.28087763416190    2.70155735348501  -10.80818889458641
H           1.98903406447473    5.14360468957239  -10.11209649008521
H           0.68836519790985    5.10680878956803  -11.31477382963249
H           2.16109093865049    4.15371332698442  -11.56186660225461
H           5.73226368638397   -4.59062565329139   -4.08896176252088
H           7.63904814002510   -5.71782475444430   -3.01842829566060
H           9.89592351013577   -4.81118756130141   -3.20536077255431
H           8.40576426283051   -1.61638598107981   -5.61892628269287
H          11.83933776595051   -4.08495578512510   -4.31634614125967
H          11.46707962294985   -3.11243948035453   -2.86513904276479
H          12.97581147839647   -2.10595238326184   -5.32983380062951
H          13.71285054938952   -2.53539053389384   -3.77692892447079
H          12.61056431878428   -1.15319111229272   -3.89008881981515
H          14.25736181701470    7.97788898267583    5.11333553145492
H          21.26493756336776    6.69167606872994    4.64585350328536
H          24.13896126010135    7.82571675020700    9.80545114433169
H          21.58667605768051    7.92007477953329    9.26530582395388
H          26.65953510681444    7.53025434548041   12.63479279505209
H          28.43622299944046    7.31607942969900   12.58077700321288
H          26.36174652448231    5.09278141656578   12.20275828415259
H          27.31797839529365    5.35151495749921   13.66720188486502
H          28.11694374365056    4.87717264877388   12.16365809977117
H          30.75931666499622    6.62594496397096    9.61483966396527
H          33.29628310995720    6.70574991435626    9.00583826215099
H          17.44140645822398   10.21733238077656    7.24369273988907
H          16.17221050192498   11.13541839658770    9.14179224490479
H          14.26698972810680    9.93116060624860   10.07335672642769
H          14.86390431785128    6.79963461459580    7.22704802826247
H          12.15806503350263    8.92163480197550   10.00871392529662
H          13.27933977483026    8.07906752340448   11.11377729271234
H          10.93219207878245    6.78032209549630    9.63953660644717
H          10.95761480814969    7.20935502830653   11.35824501105064
H          12.03776856446505    5.95087255361160   10.73552312293130
H          18.08227660908106    4.39539246233084    2.51655120162000
H          19.37945713893986    3.48615089330336    0.63672113958553
H          21.30232065183521    4.69174044009572   -0.25975912690346
H          20.64586660243404    7.82601921841840    2.56731351565411
H          22.41954310739930    6.51567707995119   -1.25804532701924
H          23.42326917510158    5.66260276469946   -0.05207306744166
H          23.67579162927766    8.62143527359486   -0.79090185658700
H          24.77388087314502    7.33307307570700   -1.31402437284303
H          24.66563585019892    7.77381348611455    0.39860538888003
H          33.42807168489348    8.45276739529297    4.52450246967264
H          40.52239465532036    7.67326682218220    4.79251077984467
H          43.25097730721413    9.91363330059777   -0.07948355704462
H          40.73528116349147    9.89114215437716    0.52007331437576
H          45.52359141241752    7.11839677039968    6.63367318844736
H          46.92558780164162    6.06835000722791    6.28670111508679
H          44.02793837795345    5.53442775114849    5.43068789356952
H          44.84281193780306    4.73859837973826    6.78632147340551
H          45.39634219930898    4.45368216303942    5.13208549294840
H          49.56843895295705    6.92415301528592    3.90039638671106
H          52.14302961927967    6.76591482669215    3.48978341279514
H          52.80667747776764    7.85559809910219    1.20053996054207
H          36.11531946766401    8.14753635596366    0.99523006405897
H          34.73151950390119    9.25342458500072   -0.71217138520354
H          33.16840561374474   11.02431622384771   -0.10389810671704
H          34.37357297348522   10.67535623982541    3.97988663390765
H          31.31225155544344   11.86087261779506    1.05825121487596
H          32.55599928255324   13.11297956455220    0.78324859454560
H          30.56099396202527   13.06472182514436    3.10402940293557
H          30.46469717515808   14.11972493876462    1.68435644133773
H          31.79334064258820   14.30030751272698    2.84241984636760
H          37.86903356856676    8.00652857747979    8.33923069453028
H          39.24731659455739    6.87318961195410   10.03331726348820
H          40.77209085820233    5.07451330374819    9.40940078493422
H          39.54674313322537    5.46026507834557    5.33449893777933
H          41.19712807037926    2.97013458339625    8.52751054865318
H          42.58025522018144    4.06302181951769    8.24961701393761
H          41.81075810277959    1.66048923996663    6.51390481982314
H          43.17864011006306    1.73184283923249    7.63592482251325
H          43.15541183596719    2.75290127686059    6.18669552000277
