278
 SCF done       -468.859916426778          0.000443333057
C           1.81284388002896    8.44391517095795   -4.64509483988934
C           0.56781574093997    9.04557710945912   -4.41501621450390
C           0.22222813635130    9.49915893283844   -3.11900981748442
C           1.06937247319682    9.39211785705836   -2.02652629914781
C           2.30655236364420    8.76839660867476   -2.25216233658913
C           2.64943605138664    8.30937297456363   -3.54878881837916
C          -0.48417553508310    9.27671887526489   -5.35111998663018
C          -1.54922478929301    9.89316254726656   -4.80103484823406
S          -1.36337911305212   10.22997255284762   -3.11241024596273
C           3.33030970900006    8.50004034802968   -1.31037904901338
C           4.43087961566968    7.90138149676271   -1.85056300147481
S           4.24918278361327    7.61314106659431   -3.57386010620885
C           2.21388866116746    7.98971553535143   -5.98584658641099
C           0.71408712973808    9.92227623984856   -0.70227075666647
C           5.62152371008737    7.53213076995811   -1.16525173561351
C           6.77875015338142    7.00477813671651   -1.70395653149704
C           7.75560228964244    6.78300902545978   -0.74540619567878
C           7.36974840725260    7.12247746141798    0.54512670724969
S           5.73909706496696    7.73530015048835    0.55371393279969
C           8.20634839608035    6.99111239441369    1.68039165781931
S           9.84813780168361    6.46388637510996    1.39593289890458
C          10.25254257973220    6.50086683526171    3.09587875992419
C           9.14912350520090    6.90255988479339    3.84081989181843
C           7.99786619021643    7.19152004984023    3.04069821986955
C           9.14436922362902    7.01213440855481    5.28741389700852
C           7.88648804188200    7.47577328736821    5.86479206924004
C           6.73943748875688    7.77641671215082    5.06402286444326
C           6.74769925095011    7.65914815730530    3.60905257206765
C           7.67061685330495    7.67383075058506    7.20617036783463
S           6.04979449978289    8.20784955467320    7.49208771199384
C           5.65629728757594    8.17554407099112    5.80737435045402
C          11.57687628019304    6.14233868446592    3.44727240107654
C          12.57107572910177    5.84978671570044    2.52209210109287
C          13.78857720141427    5.50882224240832    3.09018770244887
S          12.18762933790605    5.98554956850336    5.07107486415607
O          10.11267377094530    6.72211841918207    5.98736144169541
O           5.76724155843352    7.95348134963917    2.92821286465517
C           8.59902366135714    7.45938907227902    8.34688346242482
C           8.65882977077938    5.97987193036912    8.73763234263998
C           4.30375833824200    8.58594297876241    5.34765795433200
C           4.30389841228435   10.03905054690223    4.86409761894926
C          13.74864736957417    5.52250167489979    4.47097282677410
C           1.58486192216969   10.78320637095869   -0.03380441382783
C           1.24050992533520   11.27858475721132    1.20641779968514
C           0.03815356302392   10.93600751173678    1.80488432878197
C          -0.83983885857767   10.08419302841306    1.14327960414261
C          -0.49164157082063    9.58270853985637   -0.11055199783063
C           2.18794798371308    8.86899700980357   -7.06749683889339
C           2.57750027288662    8.42892144292633   -8.31569677377017
C           2.98979207159937    7.12100655705288   -8.51694400137214
C           3.01918714775570    6.23706175267228   -7.44355982668850
C           2.63242611328444    6.68380956011949   -6.18035268746120
O          -2.04457540545567    9.67733233120730    1.62229714298436
C          -2.48455800216719   10.16114756194180    2.87489503848764
C          -3.86429696807274    9.57745148047188    3.13568164047228
O           3.39726862098955    4.93406330124149   -7.51302812438445
C           3.81279036213936    4.40356460297977   -8.75523210767131
C           4.17457396517555    2.94312912919657   -8.53435697049280
C          16.16660836275397    4.55623392332191    8.73087503074795
C          15.92875709760075    4.75276046907430    7.36016204958678
C          16.97825581732857    4.58080403075413    6.42179300522429
C          18.26767724489106    4.22570795503024    6.78139063587000
C          18.50984925178086    4.04447094623941    8.15390291742603
C          17.45776050636307    4.21073910186246    9.09180524538290
C          14.71653769652682    5.12895609861820    6.73422720490820
C          14.79938591547899    5.20228663419807    5.37350061344812
S          16.41308827259425    4.83040154078611    4.78903424878356
C          19.73041527880892    3.70604982856924    8.78585259726929
C          19.62959271910064    3.57143000329038   10.14094955097927
S          18.00024475716533    3.88445271108867   10.71736556093104
C          15.08611836384176    4.70702188450492    9.71682919668075
C          19.32764184640114    4.04447077368245    5.77850256205078
C          20.66729502215618    3.22121517509079   11.04820645054291
C          20.55141620641068    2.97738806801304   12.40323422056923
C          21.76346701637256    2.64470479753281   12.98731997873724
C          22.83476030430861    2.63697573758562   12.10279863988228
S          22.30358924802356    3.05241314929115   10.49617613600340
C          24.16590392387231    2.33259206638085   12.47944469590065
S          24.42887964673909    1.84127664001594   14.13656832638789
C          26.15545328556509    1.68412793352675   13.91318234613943
C          26.49824964429672    2.00675738604000   12.60541085693828
C          25.37388315616671    2.35340039394250   11.79080466653198
C          27.85981854215995    2.00853247467212   12.10432444180819
C          27.98870380143700    2.30543190757468   10.68113965766114
C          26.86179669818389    2.62665684657060    9.85975731203394
C          25.49871852126793    2.66957102325083   10.38048377089618
C          29.17438903639613    2.30657181817067    9.98933879301860
S          28.91370968326835    2.72200791528219    8.32985094740403
C          27.20691511691333    2.89166521245319    8.55762211012750
C          26.91377313876898    1.25477415289695   15.03000469800589
C          26.35149118291954    0.83460012376517   16.22908968010015
C          27.27946964991906    0.46641717363656   17.18989906101525
S          28.65158872130462    1.19014462209195   15.11585581917666
O          28.83767992725938    1.79529409246322   12.81769784532635
O          24.53618197792523    2.93284248564988    9.66243077730623
C          30.55034949279442    2.05245621360445   10.48902791080455
C          31.13514260630661    3.31069330323611   11.13740496381830
C          26.33067266736346    3.24082145601444    7.40910556776273
C          25.66524757842748    1.99139617190595    6.82523383200553
C          28.58206989452944    0.61729921597317   16.74944571533885
C          19.57891945443678    5.04200257420924    4.83720460839525
C          20.56894445027644    4.86037876788660    3.89414971637442
C          21.32177050958866    3.69750757976243    3.86231705177919
C          21.07934400542468    2.69667372134911    4.79731084982946
C          20.07905421849629    2.88009631067345    5.75135406244907
C          13.88182049375580    4.02191652292558    9.55701125400617
C          12.87259705938232    4.18660338952244   10.48271842669497
C          13.03265092790986    5.02617607960383   11.57389670214202
C          14.23300787482475    5.70711395232752   11.74622719232001
C          15.25478046333377    5.53803595411347   10.81237228896397
O          21.74885028625366    1.51573239570320    4.86910969098695
C          22.76619327180429    1.24558601229295    3.92718750992659
C          23.35389033698313   -0.11673699494965    4.26019683471784
O          14.51073643322970    6.55617185171025   12.77018347432684
C          13.52655756404938    6.78718669019967   13.75743593691881
C          14.10584383278336    7.76767743081642   14.76518195546126
C          31.70807838409096   -0.99570064859156   20.31346914619687
C          31.23777703526696   -0.38120421169692   19.14063226072167
C          32.14181993329078    0.28021831789196   18.27041404476500
C          33.50214155294945    0.37052759444228   18.51658037877051
C          33.96537441017349   -0.20459901714955   19.71180928378885
C          33.06238610457309   -0.87277947626222   20.57839647413810
C          29.90257521434614   -0.30089552646303   18.67492468381440
C          29.77539336409355    0.35274778894803   17.48193382559615
S          31.31904267860397    0.91422247400798   16.86868990286875
C          35.28541206804234   -0.20138731125067   20.22470143393316
C          35.41431888690855   -0.86126829252889   21.41460451368045
S          33.88940099039588   -1.52649458282426   21.96826736608690
C          30.80776598745204   -1.74767303588094   21.19964176444864
C          34.41714871402938    1.02880375429164   17.57243734131352
C          36.58879445261262   -1.03215449168431   22.20214592277091
C          37.84239417706011   -0.49642854909687   21.96558753218303
C          38.75976034317659   -0.84920658127148   22.94183625620392
C          38.24129606620928   -1.66618766841556   23.93925359484705
S          36.55768296722911   -1.99559919204080   23.64211778282556
C          38.99808488367370   -2.14097555383941   25.03883203608187
S          40.64803299260833   -1.58038520377890   25.16827935890061
C          40.94600310749043   -2.50215436839488   26.62240062132337
C          39.80987922500735   -3.21697569766929   26.97595506602228
C          38.70687230950293   -3.00627086067601   26.08680827574068
C          39.73256044122508   -4.11298316878970   28.11853969846407
C          38.44424361956194   -4.77980781711699   28.28864436814493
C          37.33722051655467   -4.55025796479455   27.41097348172164
C          37.41320162512270   -3.63350180353336   26.27826698420292
C          38.15392048378526   -5.67017176097066   29.29267798271730
S          36.52894008574673   -6.24743268426788   29.14972940577594
C          36.22633879058802   -5.28454438468034   27.74449854966387
C          42.24006878471912   -2.38149118879793   27.19836338648959
C          43.23911658183553   -1.57341295326571   26.68397946620803
C          44.42424027128779   -1.60886525447929   27.42095951535090
S          42.80027712488648   -3.20078478779993   28.63084524014997
O          40.67560002495244   -4.31245580548717   28.87916318303115
O          36.44572185194077   -3.41043233568395   25.55354786380117
C          39.03610214397077   -6.19111807339518   30.36893086430054
C          39.90389221355745   -7.34080361771695   29.84838606388621
C          34.88691249628178   -5.30137794928142   27.10164683131726
C          34.03996901373299   -4.11701242890953   27.57622064107818
C          44.32901734648432   -2.44442772881701   28.49596503050220
C          34.15505888514935    2.32000413800500   17.11709086292564
C          35.01862158176330    2.91951816362324   16.22379700327616
C          36.14649485341545    2.25815030124655   15.76464035837173
C          36.41530075483694    0.96850044160621   16.21093325460041
C          35.54474354687485    0.36345625132474   17.11644884152728
C          30.77491939587856   -1.49065402240465   22.56922001585270
C          29.92953777128370   -2.21767954516631   23.38186189463861
C          29.10873023086961   -3.20551197620953   22.86129442433114
C          29.13590885752917   -3.47105141412213   21.49623502269034
C          29.98929380961392   -2.73621882292979   20.67463416853632
O          37.48539308750831    0.21752675824886   15.83525072959987
C          38.39779259943257    0.74632460980647   14.89428257874689
C          39.45949788615200   -0.31116666891554   14.63551548831630
O          28.38146724432583   -4.41028110556543   20.86504631213098
C          27.50575807980641   -5.21497678260380   21.62850160550763
C          26.81630959305480   -6.17861122135593   20.67525022156405
H          -0.42923031205708    8.97819651952222   -6.38235358716884
H          -2.46535764267456   10.17895084682222   -5.28032576118420
H           3.25581889974792    8.73330947467607   -0.26333463964306
H           6.89870551647545    6.79830440989767   -2.75306025024500
H           8.72939911920268    6.38022187899479   -0.96501025869093
H          12.39648585864876    5.89220163039672    1.46078146448755
H          14.67081257388841    5.25352683609099    2.52967389528586
H           8.26737111123485    8.05320183900266    9.20109954454674
H           9.60044616787950    7.77867625234565    8.05131209528066
H           7.66882862252764    5.61024324689065    8.99691848924865
H           9.31806248739290    5.85198207440116    9.59188663966427
H           9.05158917071894    5.39708848012363    7.90910762202836
H           3.59134286626805    8.47019748900905    6.16700037535571
H           4.00495050015231    7.94566262201342    4.51528109327061
H           4.63941242083793   10.70743178512963    5.65445228432830
H           3.30030306098263   10.32583988700786    4.56199340651680
H           4.96376362738902   10.14063321882643    4.00700787222989
H           2.51400998933595   11.07472063074483   -0.49906249633082
H           1.91490919564936   11.94583026373834    1.72312444455552
H          -0.20064038573916   11.33864995187852    2.77665189132553
H          -1.17858582333272    8.90919170066234   -0.59810078537587
H           1.88351276991989    9.89394188078277   -6.91826967211620
H           2.56285699289806    9.11040840422938   -9.15387313622176
H           3.28429019395877    6.80787013700871   -9.50614758944472
H           2.65158356984648    5.98102761151444   -5.36236912937829
H          -2.53485267968502   11.25906211355383    2.85955619865295
H          -1.78635756535716    9.85251080787308    3.66611647975673
H          -4.54856065258474    9.88106942862182    2.34826687438125
H          -4.24067750239518    9.92837815943841    4.09238199461493
H          -3.81103755947551    8.49235248023915    3.14776124637798
H           4.68486100220858    4.95784902747228   -9.13005752530261
H           3.00132742502950    4.48544777273136   -9.49233231714297
H           4.97095316676705    2.86676018176018   -7.79933008654455
H           4.50490425776284    2.49749014308423   -9.46830481555579
H           3.30981347591397    2.39930450559704   -8.16430055816793
H          13.80869121971230    5.34440681650361    7.26864630568219
H          20.65820540725549    3.56833462335657    8.26023696257515
H          19.61733219988334    3.03755503225425   12.93387035051509
H          21.88198296377113    2.41665282020675   14.03261690586355
H          25.28631146861153    0.79761802670065   16.38048683169579
H          27.01765717054851    0.11878673833339   18.17290643939234
H          31.18619557125366    1.73515987620237    9.66001030629517
H          30.51362814729298    1.26191975021725   11.24101207805221
H          31.14354216136714    4.13843802652109   10.43109598009965
H          32.15260384178217    3.11690289183753   11.46525691140754
H          30.54087805917912    3.58690214743250   12.00395316741705
H          26.92346467584613    3.73778877123464    6.63838889752217
H          25.54770606388548    3.91816203516243    7.75610572155855
H          26.41417742751064    1.26747594202606    6.51000231197214
H          25.05855846637471    2.26732572853867    5.96758709055670
H          25.01931779382792    1.53648360833493    7.57110723498348
H          19.01170524819098    5.95945653458673    4.86068444833266
H          20.76519625862527    5.63446954773312    3.16693836340653
H          22.08543246278220    3.58471616748495    3.10902206947714
H          19.89032570920023    2.08310142622094    6.45348158236257
H          13.75182836895390    3.35171490932007    8.72111597370829
H          11.93977759592258    3.65606189688914   10.35869116344773
H          12.22215325787131    5.13730412411443   12.27694236704364
H          16.17158203052784    6.08803280775942   10.95479342096459
H          23.54725722259355    2.01767765310954    3.98012323593858
H          22.34844722663552    1.24206170830155    2.91031249789347
H          23.75942172491499   -0.10762389898069    5.26810508671961
H          24.14544683849594   -0.36056268408163    3.55733078986368
H          22.57955610306012   -0.87674911368401    4.20501018217403
H          13.26176135677726    5.84380657712294   14.25567645238873
H          12.62091372054521    7.20765298390546   13.29740258963550
H          15.00232142442759    7.34969586997319   15.21453432458402
H          13.37692355751751    7.97313237719904   15.54398002978839
H          14.36992043476319    8.69675048537520   14.26761818714914
H          29.06918441290913   -0.71425696959410   19.21244026611870
H          36.10427976463898    0.28423166850854   19.72679331497630
H          38.07661219204748    0.12928329786195   21.12343732116841
H          39.78772835989135   -0.52948019529155   22.93976351662329
H          43.10159014990676   -0.97599292680031   25.79945848246258
H          45.30314753424965   -1.04302734721826   27.16779816879021
H          38.42502459852645   -6.54053275187348   31.20353560582280
H          39.69072363082851   -5.38714395194148   30.71025486216807
H          39.28265385878164   -8.14203611367359   29.45305379399509
H          40.51522333019782   -7.73636228495323   30.65470039042458
H          40.56063249465227   -6.97963460315066   29.06164163410640
H          34.37958848382883   -6.23768975242212   27.34257623602966
H          35.01200750639440   -5.22483522886362   26.01983245313425
H          33.93199851526648   -4.13091528520379   28.65889420279956
H          33.05382944855456   -4.16532997478757   27.12309007623058
H          34.51128534682780   -3.18514678001934   27.27660757348747
H          45.08858499565688   -2.65570126484589   29.22317850977596
H          33.28885768815912    2.85237682876935   17.47751258557773
H          34.81745909491379    3.92133474081534   15.87411907375268
H          36.80059561765994    2.75398363704746   15.06493781527709
H          35.75708545369908   -0.64520209889382   17.43551517387571
H          31.39604298165135   -0.71390651144616   22.98683018157678
H          29.90218353809476   -2.01626809904194   24.44257700754051
H          28.46034920483786   -3.75677765688394   23.52391162467029
H          30.01426956080886   -2.97185567014684   19.62199059222711
H          38.86242557104864    1.66055305480590   15.29054193891921
H          37.87509738303859    0.99491286492961   13.96002257646632
H          39.96969240946414   -0.55898647076776   15.56221953509419
H          40.18399929466181    0.05986998651033   13.91617292617167
H          38.99612989816899   -1.21276313987295   14.24451948072969
H          26.76042089775840   -4.58632664446440   22.13636822494472
H          28.07100435405559   -5.77258602381894   22.38840019193328
H          26.26315100677225   -5.62334699847888   19.92276574051359
H          26.13062630807257   -6.81689698552665   21.22517635596541
H          27.55649814304240   -6.79612646280655   20.17398167603562
