272
 SCF done       -469.477136566336          0.000500060751
C          -3.08100664693424  -14.72281140162689   -7.24511203662020
C          -2.56781940402463  -15.58977853546925   -6.25199531223802
C          -2.87417757421441  -15.47368034683984   -4.89836052907426
C          -3.71038410208149  -14.40035825169250   -4.53553357106166
C          -4.21447082830972  -13.52680580569885   -5.52888302607813
C          -3.93836517861519  -13.66720726699549   -6.88530800521279
C          -4.14430107805015  -14.02812632393465   -3.24215890112589
C          -4.97453398576182  -12.94290896626502   -3.21621419008340
S          -5.24694704824383  -12.30986025937917   -4.82856621890202
C          -2.60605473896246  -15.07506960601915   -8.54310075848919
C          -1.80599554308566  -16.15958261491545   -8.53555445038789
S          -1.56046321603472  -16.82454993227536   -6.95897069679784
C          -4.53178340148192  -12.77082935377276   -7.85856723696824
C          -2.37083856622378  -16.42591903071083   -3.92962946049409
C          -5.54670877132328  -12.36797276820766   -2.04593450003903
C          -4.72187617297814  -11.42292473749673   -7.74720479409362
C          -5.37924387837983  -10.88594035948682   -8.87093803171392
C          -5.71777255124942  -11.78509879329368   -9.83724171591735
S          -5.19471500224188  -13.36310624071862   -9.35813873558606
C          -1.13381531855554  -17.00423916865364   -3.88159553164641
C          -1.01568265065301  -17.91391906409595   -2.81324147074590
C          -2.13271609811795  -18.06788356418152   -2.04760099121306
S          -3.38699316360118  -17.04328583641788   -2.65355662720147
S          -5.15214399388789  -13.10192135554566   -0.51085507362140
C          -6.12652283199060  -11.94224055760076    0.33902459507617
C          -6.71223615169095  -11.05810332624718   -0.53674361679650
C          -6.39585168536499  -11.28492984358293   -1.88470144735888
F          -5.65583293039057   -9.57259546471635   -8.97676545647406
C          -6.39032092468353  -11.53669228447874  -11.14286327726106
C          -5.44773628995832  -11.80093748214033  -12.31781186369842
F           0.12603300627381  -18.58390798725288   -2.56803073623517
C          -2.32492026644126  -18.91949607557935   -0.84072159982701
C          -2.58297608562704  -18.07190375017722    0.40577215742087
C          -6.90358433948579  -10.46245754846965   -3.02863489417755
C          -7.85027917354689   -9.34126140585204   -2.62022718621623
C          -6.21931908419694  -11.98719699805500    1.75450668872832
S          -7.16280882677854  -10.81663992329067    2.64250387143754
C          -6.70659335398735  -11.54425762756497    4.14579234853968
C          -5.87615063589776  -12.63661890458638    3.94641115775155
C          -5.60954630525185  -12.88759279502719    2.60286314598166
C          -7.03996713821664  -11.12397685096201    5.46044743462920
C          -6.31754463800241  -11.58592216558503    6.55014306761085
C          -5.12861058675623  -12.46600095266511    6.29987002432900
C          -5.44357669335548  -13.42856277698921    5.14435225784381
S          -8.31041216286060  -10.05536987060444    5.95336199174078
C          -7.85482382165885  -10.23659630513540    7.62887479537400
C          -6.77091379887963  -11.07870718197562    7.76520826653812
C          -8.55203237072009   -9.56474274242430    8.66666282492351
C          -9.66698319599067   -8.76306439065187    8.58654242041004
C         -10.09929629635559   -8.24997544635054    9.81900085950110
C          -9.29429926857888   -8.66407435355149   10.86799504812624
S          -8.00395101852548   -9.70014295121220   10.30920329241906
C         -11.28791903412834   -7.35788397106777   10.00394885941683
C         -12.03160692937933   -7.03379798084586    8.71486748782782
N          -4.68794033499990  -13.18465136991137    7.47221037888860
C          -3.99652729993772  -14.22286200142681    7.25482588680901
C          -3.66707550541578  -14.67634183165635    5.89528409084659
N          -4.33123504700570  -14.31072675022441    4.88116240376035
C          -8.69603411711170   -8.38418431947584   14.50556325722388
C          -9.85825601033725   -7.57833286977368   14.58161026573510
C         -10.31983884971807   -7.00540394578683   15.76305202667922
C          -9.57586507053634   -7.28547414725197   16.92917438171218
C          -8.41717643107344   -8.09629083768796   16.84865367552860
C          -7.94153949620777   -8.64875147969979   15.66548069007570
C          -9.81919105389052   -6.85531651676348   18.25425185190068
C          -8.88279590879446   -7.26697257384053   19.16238763706733
S          -7.64816483846110   -8.25243345358957   18.40176095413314
C          -8.45033365079699   -8.83240778607997   13.18955539950951
C          -9.34289316102769   -8.37465998745397   12.26079854085574
S         -10.57198197425329   -7.36812709454017   13.00346855762628
C          -6.72140250615875   -9.42961960523643   15.64233378319638
C         -11.49000575092786   -6.15173257554707   15.77293225258302
C          -8.86637515977010   -6.96412009322033   20.55261714721827
C          -6.28623330276508  -10.33037459039860   16.57320714639839
C          -5.02820751953832  -10.86908949366578   16.24239459432952
C          -4.47201642482760  -10.39601330605990   15.09176261381389
S          -5.54221649062696   -9.24438753279828   14.37090392552676
C         -12.63523900808996   -6.29199200134587   15.03998590489093
C         -13.54982951521196   -5.24890861947009   15.27937193020045
C         -13.13600425161484   -4.29711439155760   16.16276543370963
S         -11.55634481420885   -4.70084875911424   16.73873610713756
S         -10.16878487676968   -6.00138999447958   21.20662756996540
C          -9.47018365911606   -6.05564927619069   22.79431265259285
C          -8.29904750899556   -6.78170961917018   22.78698730899816
C          -7.94675197430808   -7.30083044125995   21.53493848905915
F          -4.41888107947576  -11.78814309708523   17.01572394263354
C          -3.18245325368636  -10.78192959600057   14.45400021089563
C          -3.41062428038129  -11.50085693404844   13.12349411375815
F         -14.75032937239438   -5.19825650370430   14.67150540303588
C         -13.87187367130864   -3.09878854135552   16.65371528597175
C         -14.23619949342850   -3.23469187657166   18.13319613921088
C          -6.72249473060355   -8.12437093630848   21.27655483850642
C          -5.84692230093260   -8.34980106304550   22.50260545349097
C         -10.07216097249677   -5.41965256028331   23.91354201056316
S         -11.60739197822004   -4.59928468391217   23.79386605890359
C         -11.55483896338413   -4.18055257067646   25.47193967142751
C         -10.39978660934397   -4.65821966616419   26.07320946176755
C          -9.57308698142374   -5.35967145602096   25.20013335219117
C         -12.50714144140128   -3.44552236494460   26.22641311778194
C         -12.17432858341939   -2.93678300584126   27.47303678801456
C         -10.75659704997598   -3.07284950108725   27.94342930979210
C         -10.22342298211984   -4.45861592752436   27.54962764920173
S         -14.15826133952168   -3.10930711866402   25.83251065201019
C         -14.39435746521487   -2.29788998673193   27.35888698125726
C         -13.23139856550607   -2.28770183707776   28.10446220346283
C         -15.65585850022350   -1.76462208748830   27.73806881168723
C         -15.97560861082486   -1.17010273635877   28.93931316871069
C         -17.31301303821882   -0.76915925723882   29.04968100727366
C         -18.04086724276769   -1.05816796623979   27.90507347965891
S         -17.04181538388016   -1.82493051033801   26.69505404509695
C         -17.89861332010151   -0.10432666292230   30.25757564901105
C         -16.89148334510403    0.18846160380574   31.36243845901043
N         -10.59236640937077   -2.83432314312761   29.35834113630488
C          -9.54746227484356   -3.32299061517509   29.88066624852408
C          -8.56830542136257   -4.09554660258343   29.10179518600569
N          -8.86183087662901   -4.63897049963863   27.99637428890742
C         -21.41724269158051   -0.79907671493712   26.40014922559182
C         -21.86443403239043   -0.32914321649730   27.65898750257377
C         -23.19471601311411   -0.05071592124770   27.95169301056982
C         -24.11862025552609   -0.24337773074196   26.90509704670727
C         -23.67181609748231   -0.69696785871657   25.63988814382354
C         -22.34029588059582   -0.97581058829475   25.34808968179969
C         -25.50749486998528    0.01399480739615   26.91144583984659
C         -26.13235447064490   -0.23108490435731   25.72045544415966
S         -24.99661940975380   -0.79829040064609   24.51095441677305
C         -20.03328775457459   -1.08941204736023   26.41157169734631
C         -19.41505452833040   -0.83994272211199   27.60578233898609
S         -20.54746926447107   -0.21802212376125   28.79157688982972
C         -21.93893126639420   -1.40327322585300   24.02408395071810
C         -23.59221871136563    0.39224436789250   29.27228510675384
C         -27.52586704815946   -0.08094944317730   25.47368969435088
C         -22.61442339133054   -2.22303104893156   23.16413477907544
C         -21.94525881045140   -2.36821268530559   21.93411019729637
C         -20.78108353956531   -1.66992439459960   21.81332349846616
S         -20.47970102932918   -0.80386126046360   23.27978804984117
C         -22.92503955037756    1.24380245217652   30.10724406742670
C         -23.58890009465909    1.40767570440509   31.33802760516299
C         -24.73981844298738    0.69260968863841   31.48341723147099
S         -25.03362020876459   -0.21695932206180   30.04198861979540
S         -28.54852963171954    0.32616432348987   26.82881034337662
C         -29.96113903680931    0.31855210902808   25.82160515676395
C         -29.63040088414676    0.01997924872256   24.51814396721080
C         -28.26345167624974   -0.21100593079200   24.30756407261227
F         -22.43046920302514   -3.14176104920634   20.94439361082442
C         -19.83517299029458   -1.63056978061813   20.66344632911613
C         -18.50318198680120   -2.29750597730570   21.01023904378266
F         -23.11219806013929    2.21607772039504   32.30430989486144
C         -25.68266571297906    0.66861643291821   32.63620653469683
C         -27.03989669549677    1.26473001965760   32.25992105701608
C         -27.65198459029445   -0.56087364935383   22.98552707740449
C         -28.63591668045369   -0.56479405949351   21.82269800029224
C         -31.24916127558299    0.58570395570661   26.36045008510979
S         -31.46537485793138    0.81390157527821   28.07712133045030
C         -33.16651304015417    1.03226544798721   27.86759702661272
C         -33.52892562321807    0.93676076115241   26.53326047061475
C         -32.44945581806630    0.69047897542205   25.68630228522304
C         -34.14601083507805    1.25187141502550   28.87150023542700
C         -35.49335626928175    1.09525320449833   28.59424744680502
C         -35.88509288511578    0.58705934428372   27.23767933380235
C         -34.96186813667320    1.19523145245630   26.16946686106482
S         -33.88941953573163    1.73339829263936   30.51372034049126
C         -35.60803941284676    1.72162726775038   30.81690058529270
C         -36.31406097520642    1.35481610892072   29.69309890698107
C         -36.11766369662677    2.05798118909694   32.10292468467064
C         -35.42071823011689    2.40004972335914   33.23287777388078
C         -36.24554367816886    2.67187753584027   34.34598055231789
C         -37.56640019165702    2.52906954107621   34.04317929720394
S         -37.83301259868409    2.06811034920591   32.40883535608479
C         -35.72032509005130    3.02050010655132   35.70300190674733
C         -35.25086660902070    1.76393170268795   36.43814831728827
N         -37.27327369378900    0.81996878635456   26.91460102897283
C         -37.56459305549288    0.79331535930655   25.68278953157850
C         -36.55325070205299    0.54798186891716   24.64385572801559
N         -35.31645284834615    0.72470579442701   24.85058059243942
H          -3.84733784858976  -14.53413775416506   -2.34223091312139
H          -2.84998705456310  -14.52980660800268   -9.43557779285085
H          -1.31936364924985  -16.62582497080041   -9.36960979927795
H          -4.38191334578980  -10.82262288833371   -6.92454058984325
H          -0.32299941294445  -16.77371807403158   -4.54656399431842
H          -7.35262147660664  -10.26777415605660   -0.19025707549107
H          -6.72624007476788  -10.49774020748692  -11.16207257026555
H          -7.26691182975969  -12.18380786766418  -11.23250607689208
H          -4.57350196105000  -11.15689196201394  -12.25508090220956
H          -5.95669408768797  -11.60463955487828  -13.25779540696069
H          -5.11713541943341  -12.83736953201020  -12.30973778511702
H          -1.42628252406701  -19.52438825875079   -0.70196088546269
H          -3.17141567446103  -19.59335845115117   -0.99880575282338
H          -1.74317056017719  -17.40665683198057    0.59303421257323
H          -2.71875770453741  -18.71257388550593    1.27312513064789
H          -3.47899756212970  -17.46934416964177    0.27327722657351
H          -7.41354412533732  -11.12369597611904   -3.73630356222661
H          -6.04731073674101  -10.03427369547334   -3.55930206367125
H          -8.73065240883039   -9.74002805242189   -2.12179726374039
H          -8.17522216940193   -8.79984508255648   -3.50542410959328
H          -7.35531199237368   -8.63869338456311   -1.95404280495778
H          -4.98636581539165  -13.69293780934890    2.25976207311653
H          -4.29208836976610  -11.81085370349513    5.98893496185169
H          -6.29747461010185  -14.06490683291670    5.44676132944125
H          -6.32856006633604  -11.32207437123936    8.71375750684583
H         -10.14753281055085   -8.56390323510306    7.64617218158330
H         -10.95713884965020   -6.42611051233998   10.47366117102068
H         -11.97760211671589   -7.83602985124665   10.70660078023466
H         -11.38198530855219   -6.51823525269150    8.01149697821936
H         -12.87692019172756   -6.38654103576442    8.93577832889709
H         -12.40933260124743   -7.94005619895691    8.24728569273753
H          -3.64477631939600  -14.78700220360600    8.10877683226829
H          -2.82847443277897  -15.34266995754856    5.74032103871139
H         -10.66422098237871   -6.26031048616053   18.54778387975333
H          -7.63904119683581   -9.48317731203134   12.92056029025339
H          -6.84409993551121  -10.63462051543290   17.43858470883779
H         -12.84752964805960   -7.11684404095972   14.38637721600812
H          -7.71827701822880   -6.93124233895171   23.67665882859999
H          -2.64188008711802  -11.43490127359137   15.14261463444573
H          -2.57725335672509   -9.88803622425100   14.28068983719711
H          -4.00007876310859  -12.40215145681357   13.27553397995290
H          -2.45820769050329  -11.77945138455169   12.68015173630372
H          -3.94200205242179  -10.85234558197506   12.43033047695747
H         -14.77881610188674   -2.98482140206469   16.05598873978869
H         -13.25385656877958   -2.20760570640846   16.51591961030472
H         -14.87224599478389   -4.10293430861523   18.28956229067472
H         -14.76806117264398   -2.34895746850092   18.47066805181603
H         -13.33733912577341   -3.35127509029955   18.73472423604317
H          -6.12810622201507   -7.63537319277339   20.49845480519787
H          -7.03103467612665   -9.09465938706855   20.87517137274273
H          -5.48931978335761   -7.40411876678634   22.90310431629011
H          -4.98384787141644   -8.95045524681698   22.22564960434144
H          -6.39447356877931   -8.87908632983556   23.27883105552525
H          -8.64219606122012   -5.79736622551412   25.50630390938409
H         -10.15672845043327   -2.30783793229788   27.41404523709972
H         -10.83585239169546   -5.22542142253524   28.06204042515023
H         -13.14123499326948   -1.83619922307958   29.07391773859108
H         -15.25012257564566   -1.03949664742376   29.71896092349835
H         -18.69390013569859   -0.74096194016819   30.65807700334319
H         -18.37049515390958    0.83284739716570   29.94729345324858
H         -16.44827145071925   -0.73060622950679   31.73838457766859
H         -17.39437337789363    0.68540211429866   32.18859859554417
H         -16.10029598850035    0.84181115114879   31.00200255176591
H          -9.38455078098132   -3.16280282750076   30.93857256035124
H          -7.55825611852170   -4.21078223908155   29.47308841220413
H         -26.04406696668988    0.38732821446115   27.76397130332515
H         -19.49734987901940   -1.49107789432939   25.57133220458583
H         -23.52795141311944   -2.73658935638738   23.39729009242088
H         -22.02238219041547    1.76746294649438   29.85476154064088
H         -30.37072928438475   -0.03453654355239   23.74300676065359
H         -19.65329836560167   -0.59176719138538   20.37502388910201
H         -20.30035926453896   -2.14536474502554   19.82002872751945
H         -18.03198167601544   -1.78786232867531   21.84784982080690
H         -17.83205121508247   -2.25974359240470   20.15620918511960
H         -18.65963664698084   -3.33869705219280   21.28237557584968
H         -25.23801734000014    1.23970863085569   33.45415228488565
H         -25.82349401337132   -0.36200867850950   32.97308303013071
H         -26.92466395446699    2.29722569528227   31.93815073850282
H         -27.70987490284244    1.24048855301525   33.11529361006324
H         -27.49001464551417    0.69742139289687   31.44812920792147
H         -27.18752649321661   -1.54882662267510   23.06575432950341
H         -26.84670227544054    0.14879968862994   22.77243382777588
H         -29.41360743854772   -1.30949125849069   21.97446255766211
H         -28.10977104631304   -0.80594163826142   20.90221202092200
H         -29.09951036754050    0.41194862240928   21.70518038060800
H         -32.55129004688281    0.59337613972673   24.62206526079656
H         -35.73417760131935   -0.50992104061838   27.24215291424720
H         -35.10840607187169    2.29277595053768   26.17158659905608
H         -37.38568881402607    1.28023446743033   29.66646399070300
H         -34.34645383203210    2.45631108687898   33.25528363583010
H         -38.40964497181008    2.67218771591206   34.68960425367320
H         -36.50320137952722    3.51191668856174   36.28360733041869
H         -34.88275184680348    3.71361523310383   35.59874363588168
H         -36.07952431921824    1.07165279952675   36.56973336162962
H         -34.85571029283732    2.02282565600509   37.41750807508117
H         -34.47134690464265    1.26128333286883   35.87027501348513
H         -38.59587218965741    0.95999074595962   25.39999075453357
H         -36.86120758351710    0.19915213642202   23.66667249463420
