230
 SCF done       -383.677975708088          0.000296530051
C           5.01741895505114   -6.88867091386545   -5.05307440907993
S           4.85199069990069   -6.00038756008320   -3.57817507870991
C           6.20760997944294   -4.98719931572700   -4.00389672973925
C           6.72086956524394   -5.33899236009571   -5.27362626516029
C           6.02265096859957   -6.44860908359668   -5.83548887926824
C           6.71718786082654   -3.94719579128398   -3.22996596837445
C           7.82761048265568   -3.26271487083348   -3.76247165390470
C           8.33948515501210   -3.61746194924764   -5.03321261720418
C           7.79900048918119   -4.62389277263483   -5.82469761137800
C           8.30136350299909   -4.91208270250148   -7.15383357571273
C           7.58887934119130   -5.15235114808928   -8.29413864683626
C           8.40255045813926   -5.37489529644968   -9.42354774876352
C           9.73412882477161   -5.31650042138544   -9.15118044722390
S          10.01140760833263   -4.96817566767629   -7.47619899517201
C          10.88502250902750   -5.46159334471018  -10.08580816621661
C          11.57198724130750   -4.11565601481591  -10.32598117008210
C           6.11917508258979   -3.58953819796962   -1.96054100505191
C           5.61053026149905   -4.42062271237757   -1.00140491889620
C           5.06412469148214   -3.73471787580641    0.10058263260172
C           5.13221284055982   -2.38025040640813   -0.01394064124338
S           5.89817800995127   -1.92295577683358   -1.49797451955965
C           4.69859808886963   -1.34001118359048    0.96009305414496
C           5.89866834712894   -0.73256398468095    1.69059163974648
C           8.57405627736344   -2.21423345286171   -3.17517028717260
C           9.59476557095081   -1.74458217520599   -3.95340374936315
S           9.68642211902341   -2.60678741107469   -5.47592483724391
C          10.49139238597367   -0.69567881817274   -3.59223482948359
C          11.56071935704185   -0.12877306550676   -4.26734593916705
C          12.17209715740985    0.89461474094996   -3.53052225414913
C          11.58890334842012    1.13227241856679   -2.30600894879656
S          10.25047198828194    0.06494315358980   -2.03901953506805
C          12.07349529460021   -0.54679912099566   -5.60958166858152
C          13.02642677862542   -1.73740804355102   -5.48885889593405
C          11.96590116979384    2.10760657628347   -1.35148361644881
S          11.04850298417004    2.30307538391159    0.16681909377662
C          12.12714725732804    3.57848088311079    0.57063083519660
C          13.07268965943414    3.74121803433914   -0.45411911902201
N          12.96768187965861    2.92373621177697   -1.50230824198109
N          12.22291708773779    4.40261179994150    1.61301726429882
C          13.21925157597334    5.22624960858232    1.46042209565683
S          14.14660493424453    5.02233633456331   -0.04940001394927
C          13.53973209983341    6.23032721819782    2.40568773270476
S          14.86719637832702    7.32351933295676    2.20391672302660
C          14.47601801112333    8.13003316542591    3.70127770383697
C          13.36786384751866    7.55869654709199    4.31289689832457
C          12.85364394625024    6.48824549470222    3.57302813250676
C          12.79963149276812    8.03729085949210    5.61360080675992
C          11.64005333707532    7.19580442644118    6.13103346835997
C          15.28171455331783    9.23586611614753    4.09847848296483
S          14.87405810131394   10.25344845670518    5.46821067395483
C          16.27451590369206   11.25280188129615    5.19900670680873
C          17.00812408398267   10.81090390808773    4.07192032105349
C          16.42840705966664    9.66088884420949    3.48654531272834
C          16.62440626174128   12.36583620698412    5.95545236511331
C          17.80764505495164   13.02786683604516    5.57537766022702
C          18.55109122719523   12.58135557950459    4.45632149654547
C          18.16653531374858   11.50472290833375    3.66482952156154
C          18.88704390684445   11.12744631561191    2.46700171366794
C          18.37490345661077   10.75865893356410    1.25394402666386
C          19.36588124026787   10.48116294724038    0.29238763232675
C          20.63427172062754   10.62522676398939    0.76462682054752
S          20.62779424829293   11.12654732280890    2.42294666462203
C          21.92261749983914   10.45920487393214    0.03587350381337
C          22.56304527169921   11.81635147983081   -0.26392284365701
C          15.79158480091781   12.82621045478994    7.04792191397596
C          15.11345543982014   12.08018982093940    7.96993059428162
C          14.35634156232827   12.85531518341643    8.87105521814098
C          14.43293521188536   14.19291610544863    8.63568980341881
S          15.46803429976687   14.52315518378043    7.28564947212721
C          13.79699795004704   15.31127073472279    9.38690865622120
C          14.84036478682901   16.15933062636064   10.11655224888463
C          18.40769174716774   14.15117368752572    6.19526053720371
C          19.54084624358174   14.58400540461764    5.57259281391331
S          19.94718597029128   13.58965585330540    4.18733760984462
C          20.36443253318741   15.69857183495615    5.92287469860757
C          19.99038641735249   16.88739284172449    6.53088446220937
C          21.08227273890382   17.74577333074492    6.71079742801485
C          22.27793846928053   17.23175767661729    6.25783063537928
S          22.06639915040227   15.65661468602656    5.56998978544203
C          18.58089206129186   17.22702024501891    6.91208975745842
C          18.30137336863094   18.72674322751777    6.91323300014148
C          23.54216286435565   17.86542349824371    6.34848683888270
S          25.05203175170202   17.00318259021792    5.95262380087173
C          25.90163007917475   18.43060223226573    6.39831707809809
C          24.98643347350716   19.42117960300685    6.78672931592930
N          23.69547928869467   19.09082092382976    6.75788706816360
N          27.19430210193383   18.75399790257713    6.45321001645142
C          27.34581700367341   19.97813769745269    6.86590144122070
S          25.83176693727206   20.85107631011371    7.22704925742659
C          28.60540765618428   20.59388195537868    7.06516852197422
S          28.75003664578246   22.27026440599206    7.47373310231971
C          30.48649536844698   22.13523915892771    7.56146706829021
C          30.91166166013297   20.84263321834622    7.28680239917568
C          29.84098593305481   19.98725699554581    6.99917078578033
C          32.35107421745059   20.42837066395899    7.30315664219083
C          32.58596677435900   18.98457390491268    6.87826145902051
C          31.22928883161417   23.30498936236851    7.89261120535470
S          32.93802320194861   23.26561548733552    8.28044783848328
C          32.95768222726323   24.98639389221365    8.55356620642446
C          31.67420752229966   25.55041867770467    8.35464371591001
C          30.72506621614180   24.57366168781262    7.97760433145474
C          34.08560191338670   25.73383016455979    8.86932803743711
C          33.89546402468702   27.12408253619456    9.00613670200797
C          32.61443015575493   27.68905932776812    8.79512029311702
C          31.48440205599819   26.94120857006274    8.48959419589403
C          30.17660985228942   27.54201166665723    8.32747915559429
C          28.97207487656067   27.08544553126334    8.78413106468693
C          27.89265785436167   27.92483215308124    8.44481040544437
C          28.26261684930417   29.02132902255616    7.72895992420773
S          29.97504166684956   29.04088088586638    7.46290823000862
C          27.40033531024695   30.09544606408800    7.16158110377547
C          27.24798954486440   29.94247177866508    5.64665480297315
C          35.39135039675856   25.13081404403302    9.03814336606378
C          36.60047608997686   25.58236258143285    8.58907829213693
C          37.67311579391917   24.73372279714192    8.92755533246408
C          37.29408748442049   23.63989208213870    9.64263450644026
S          35.58052095688994   23.62987349069562    9.90116279414478
C          38.13527435461333   22.51932875268394   10.14823651029890
C          37.86376090377838   21.22948731150348    9.37153187734384
C          34.84287767004106   28.10142532433649    9.38724613845569
C          34.34406088694946   29.37370237809526    9.45037058036672
S          32.64044265986492   29.41271578940261    9.04023262676720
C          35.09051390904362   30.54139340194082    9.78597994828090
C          34.70773676300084   31.86730684735456    9.91399268067619
C          35.78133572389217   32.69917497477798   10.25829433716588
C          36.98187539896687   32.04058919475642   10.40157864993725
S          36.79757065095237   30.34412223018523   10.10378061679314
C          33.33548814423575   32.41524457972864    9.67913807576770
C          33.11197040906457   32.71387679267566    8.19536926341225
C          38.22946827872080   32.61694818519216   10.74413182946237
S          39.69964330194230   31.61924822452810   10.90284136600206
C          40.55155996836574   33.06206586004582   11.28797202398468
C          39.66891251884747   34.15192382215912   11.26371849367315
N          38.39676747225747   33.88817544272816   10.96301831237480
N          41.82434412557460   33.32754567302163   11.58806922503139
C          41.99116995867882   34.59788584395000   11.80519206129775
S          40.52193615476902   35.59466730906520   11.64700267116337
C          43.24349806494182   35.17559616203564   12.14430315350368
S          43.42946423293139   36.87943584719044   12.42347827850109
C          45.10368918194397   36.66837484000113   12.73413057952764
C          45.50882236589788   35.36867656864519   12.62945632511579
C          44.43933191181662   34.51498476741327   12.29294727034008
C          46.90421891445491   34.89228343549325   12.88463670286346
C          47.01113519562785   34.24793296298476   14.26752603375675
H           4.34575489399027   -7.70439636684738   -5.23662895207334
H           6.28776091972230   -6.89856410603163   -6.77443839975759
H           6.51425908949226   -5.12679849369088   -8.33218468742080
H           8.00966154677185   -5.57161527731699  -10.40566014853968
H          10.52149841175918   -5.86574897556123  -11.03295362929503
H          11.61134497521354   -6.16413664107959   -9.66938661538993
H          10.87134238378075   -3.40575711028119  -10.75983155927422
H          12.41231942922352   -4.23567850317526  -11.00513652979451
H          11.93736669495989   -3.70877228119606   -9.38571814256767
H           5.65915517787447   -5.49264027383260   -1.06343655377113
H           4.63040054456771   -4.23231290487351    0.94996870984698
H           4.01976857184717   -1.79678387082036    1.68355956442743
H           4.15951522382075   -0.54653248221243    0.43671991433895
H           6.44157205790229   -1.50394309676105    2.23219916191505
H           5.56619766535990    0.02188517236197    2.39907579745972
H           6.57756999338912   -0.26698099641447    0.97959802933663
H           8.38003520463905   -1.81890770269248   -2.19479481133027
H          13.01819736357195    1.46137887678375   -3.87395827820740
H          12.60655093094976    0.29601711495279   -6.05351758488943
H          11.24430545643201   -0.80877904083584   -6.26838886222134
H          13.86657283720176   -1.48416977285874   -4.84620834472939
H          13.40717063105132   -2.01219239681646   -6.46906737968238
H          12.51330475748882   -2.59713308524546   -5.06599081112918
H          12.00131960154808    5.89852974244164    3.85071062714126
H          12.46587976011115    9.07257827767693    5.49144818575354
H          13.59787511464001    8.04874708803150    6.36182964860871
H          10.80395352621404    7.21852602997574    5.43664238601068
H          11.30102482386998    7.59197382171787    7.08530140428890
H          11.94742224434826    6.16342906127328    6.27888928606008
H          16.85689053006167    9.14038716609333    2.64930193009245
H          17.32084242560650   10.73221258823925    1.04250076624851
H          19.14266371479922   10.18330474955259   -0.71694040969951
H          21.73318153139865    9.92570861303891   -0.89801740227400
H          22.61292860559831    9.86351890226506    0.63803726598386
H          21.89738920402881   12.42145335849695   -0.87538305001712
H          23.50062660858911   11.68198150200133   -0.79746012224441
H          22.76170636153963   12.35073812592695    0.66233705266790
H          15.18322593225323   11.00912052086125    8.02737928231128
H          13.77123232493346   12.43062653103403    9.66758381915596
H          13.09189278743751   14.89127726038322   10.10726328845694
H          13.23942564593639   15.94902407449378    8.69558655506499
H          15.40130851718696   15.54734873799436   10.81949280641875
H          14.35663919876565   16.96383796032148   10.66467276003284
H          15.53692040054946   16.59417209203696    9.40292551498716
H          18.04274244873153   14.58315907656702    7.10633594799956
H          21.03353225916751   18.71889225384508    7.16102268899608
H          18.37430252518062   16.82611159050392    7.90964893874724
H          17.90035748145010   16.73236809555168    6.21478624726987
H          18.84877743862718   19.22867856639226    7.70643926132902
H          17.23960565503993   18.90081766350860    7.07158405208851
H          18.58467888964548   19.16800160753670    5.96084175457289
H          29.93166341026630   18.94608929490399    6.75550394513104
H          32.74502218497054   20.57445524333062    8.31400822845924
H          32.91662350883688   21.09500331914306    6.64514001566025
H          32.08815303032799   18.29500596175922    7.55544407669512
H          33.65168927108172   18.76913775356912    6.89577122660919
H          32.21883146312605   18.81393721783489    5.86916174176428
H          29.70077076058765   24.79890708234922    7.74236643507828
H          28.86675143891867   26.19764953260239    9.38178648014527
H          26.87496295737477   27.72171943778855    8.72826229932611
H          27.83849540770765   31.07236829400715    7.38003302496032
H          26.41838173407313   30.04532188644309    7.63687218370037
H          28.22056620690727   30.00249625702643    5.16350661879429
H          26.61217404940094   30.72986702403920    5.24971257290815
H          26.80182359238795   28.97999584520178    5.40684593088112
H          36.71375017626053   26.47242919736896    7.99629603299201
H          38.69337258256292   24.93220898485977    8.65015481725127
H          37.92409256828775   22.34961440108016   11.20714194381204
H          39.18676741379154   22.79676915985375   10.04921636560168
H          36.81928799130549   20.94336948048159    9.47324239596443
H          38.48561375102805   20.42231672606087    9.75039942952621
H          38.08141169037325   21.37126325934044    8.31531831709693
H          35.86386153461878   27.87341280968072    9.63449167889145
H          35.69816720523073   33.76045048610849   10.40571503692948
H          33.23012219624447   33.33917398757919   10.25081191485155
H          32.57843963921125   31.71176163236273   10.02807779726176
H          33.84952824035364   33.42985498514224    7.83983663650561
H          32.11944879913175   33.12952347644050    8.04332071419068
H          33.19788847879516   31.80543799923592    7.60494554082979
H          45.70224851609861   37.52489026176280   12.97501338866676
H          44.52544959234415   33.45306104467429   12.15543993738272
H          47.59584806965802   35.73383518911134   12.81855439301520
H          47.17877040340787   34.16022716968163   12.12241017684892
H          46.76049895576413   34.96990474688295   15.04142682019626
H          48.02326516391818   33.89056522557254   14.44064705249225
H          46.32669943676042   33.40698037354142   14.34835673349382
