245
 SCF done       -438.485780575437          0.000240351139
C          -2.90596301418974    4.34697466265813    3.21485855836016
C          -2.16823394889400    3.14174773571534    3.14265914665240
C          -0.77945858171720    3.09170901683493    3.19995015016259
C          -0.11276341655862    4.32079893234979    3.36047410911337
C          -0.84941269771056    5.52777801583464    3.43064232231257
C          -2.23874362651061    5.57692155323098    3.36654099801366
C          -4.30470786243695    4.10992932909739    3.06898219222984
C          -4.60450110325589    2.80560896711392    2.90722690495627
S          -3.21999783239969    1.77073044879840    2.91761250867195
C           1.27522553116100    4.53974189670595    3.52798045574053
C           1.61208555896315    5.84951369180703    3.70385319807877
S           0.20654010187378    6.89584057587470    3.67534163377536
C          -0.03082843728930    1.85448800877411    3.10786303834007
C           1.12927563601313    1.62609258068181    2.42377943459921
C           1.60671272546216    0.30918445312971    2.59064011627507
C           0.83517226587099   -0.47409798797459    3.39842319152738
S          -0.53361626086402    0.42218566657545    3.96059806912029
Cl          3.05689569461417   -0.24561853736058    1.84371401102719
C           1.01411483982136   -1.90935682106981    3.75111676865714
C           0.18458426591484   -2.80638986676194    2.82917555591112
C          -2.93828396317916    6.84304749369557    3.46949624757082
C          -2.57666677515048    8.04162954404356    2.92424997452211
C          -3.45642488484276    9.08749653199518    3.27534741616943
C          -4.48717885415646    8.71240039681062    4.08653257314885
S          -4.37609887305898    7.02244988458950    4.43675018548769
Cl         -3.24303094125981   10.70056324432955    2.71210394228874
C          -5.55795768250610    9.55767807863895    4.68260032655421
C          -5.15748969742536   10.04852623709109    6.07604219359805
C           2.92599232138040    6.36415795707543    3.88068849221628
C           3.32504329469704    7.63537046134307    4.22831590518009
C           4.70945012146629    7.76230067177019    4.33695066663620
C           5.39456815436241    6.59422970744778    4.06813999741843
S           4.29450856819042    5.31588271250971    3.66010233292184
C           6.80828269218431    6.37143831055638    4.10482979214721
C           7.37437267371694    5.13838998701276    3.76042082851378
C           8.77677890472317    4.92364727282362    3.73288342101080
C           9.68088060305223    5.87487704854250    4.20387670110848
C           9.12351397493107    7.11893518905047    4.59373254239002
C           7.71437343087385    7.38464041242786    4.51038425117299
O           6.50567479820964    4.15502495446178    3.39100374907037
O           9.24950587660081    3.74030551346692    3.20495488981847
N           9.80832192836212    8.17349823768082    5.02463415729445
S           8.78753389452925    9.38550210376134    5.29944857037959
N           7.42830423458297    8.63023407648801    4.88509702002093
C          11.10079288288152    5.67761136567367    4.26876396451227
C          11.82957908805817    4.51245518222176    4.14360568266933
C          13.20672336543888    4.70260863311324    4.25310450708355
C          13.55534364743711    6.01736823454067    4.46789917604801
S          12.14800644608029    7.03560276477836    4.55425386856040
C           6.71424870634459    2.82149458306404    3.85518918238442
C           5.35752200737322    2.17667707110946    4.09488417917067
C           9.15037037732933    3.65601779118195    1.78540445803201
C          10.09675434809581    4.61036692100364    1.06703835622237
C          16.53579473516432    8.14578642412219    4.99239975831263
C          17.31106520276323    6.97882785760744    4.78104198230205
C          18.70098436914347    6.96875916570051    4.82598840233291
C          19.33095522247676    8.21024153362473    5.04878216109048
C          18.55466937432087    9.37652512473931    5.26167339611118
C          17.16456337257442    9.37697957193177    5.26700433426844
C          15.15080091794308    7.88456576010489    4.87791835092847
C          14.85198654574216    6.57672491158280    4.63049532588547
S          16.29381255792633    5.58860325286488    4.50770957098561
C          20.71727621772715    8.49030202300039    5.08044762978302
C          21.01277535883265    9.79703603045333    5.33777809943492
S          19.56794538250965   10.76595664159196    5.54855932036549
C          19.45143253473990    5.73911654643180    4.67027094518597
C          19.19128154228820    4.69416200971436    3.82994233888551
C          20.11490353525094    3.63698469020440    3.97346877445462
C          21.06924537468326    3.84336856656470    4.92644125996423
S          20.84127697530048    5.39111336520147    5.66265904043683
Cl         20.02950298860129    2.20612065092398    3.01897916926514
C          22.21946146987968    2.97792959664158    5.30605780242075
C          23.52135079096020    3.49433478408491    4.68803091864929
C          16.40706415409472   10.57630129072175    5.56306151319616
C          16.66736159784711   11.85956896659770    5.17566121025240
C          15.72330287680970   12.78147769706445    5.67730750812816
C          14.75358657876473   12.22981725645818    6.46252813166882
S          14.99592317512718   10.52201298590577    6.58437996245113
Cl         15.80443967133120   14.46407637332866    5.31874000050848
C          13.58307719854692   12.87996403480867    7.11344089556482
C          12.27734390017223   12.48906212218939    6.41709148815140
C          22.30573084930658   10.38381390991831    5.41530683239871
C          22.63555427846684   11.69561877102745    5.67338170833156
C          24.01042682302930   11.92908271451500    5.65105004185630
C          24.75544198301506   10.80052687573595    5.37862529549023
S          23.72819504382771    9.41331822083657    5.17227292679910
C          26.18235360475328   10.65926454732703    5.28309637188936
C          27.06517085628695   11.71802667113848    5.07768069605816
C          28.47119083728385   11.53502454594831    5.07579288270183
C          29.06924550689964   10.27549747349023    5.17841572037015
C          28.18887630437481    9.17157172215562    5.32128993058326
C          26.76796862626109    9.37216910940301    5.38359981910606
O          26.59358995219871   12.99439351184658    4.84414789610556
O          29.31280152341326   12.59191118822362    4.86975095526795
N          28.50581809494846    7.88234364474342    5.42215206208735
S          27.15936545713053    7.01557535774278    5.58090590726655
N          26.10522504388452    8.22890923907553    5.52889991308585
C          30.48959813479354   10.10916887614726    5.11527559163711
C          31.21036236866563    8.93985931356960    5.25007748846971
C          32.58695941959392    9.11822650542741    5.13216269228301
C          32.94537617509414   10.42827144459362    4.89821720244375
S          31.54700759918733   11.45892807064430    4.83040617682747
C          26.07523452943842   13.20594049908809    3.53490977125969
C          27.14619266269097   13.11663490914826    2.45508562671313
C          29.23397208258530   13.71034534211394    5.74790181452380
C          29.54495625462798   13.33333009979823    7.19042155451034
C          35.98377041391149   12.46988811034270    4.33274573611482
C          36.71383442917550   11.26097025278860    4.44706632418841
C          38.09012575146272   11.17609805038760    4.26581152130808
C          38.76019873537348   12.37864073814700    3.96600861044982
C          38.03107554490542   13.58771500034873    3.85388499517407
C          36.65484328325442   13.67355260850293    4.03700416864937
C          34.59267055635253   12.26002842883394    4.48428930244523
C          34.25115166211380   10.95938364570059    4.71765604976754
S          35.65662254896124    9.91353063939854    4.76993126445100
C          40.15054100278524   12.58394099027550    3.79308932452721
C          40.49024114999918   13.88044634777585    3.54347282874369
S          39.08901638740687   14.93175109091441    3.51432702028928
C          38.77779141400123    9.90424953642038    4.36213043564754
C          38.53997398748614    8.88737414687190    5.24208941547952
C          39.36486068278556    7.76530937310424    5.01421454732050
C          40.21907513878283    7.89474486926332    3.95849017300293
S          40.02397919161589    9.45150673743560    3.23109683225628
Cl         39.28406151236618    6.35005172271608    5.99161244815917
C          41.25026886274318    6.94010684501387    3.46735595680857
C          42.63502267538047    7.30057018705424    4.01101941582549
C          35.96643060909889   14.94463072266512    3.93797070611947
C          36.21130799964295   15.96379412806621    3.06195428087143
C          35.38928775586800   17.08737012176703    3.28942710402324
C          34.51745871595793   16.95040587538710    4.32991065832828
S          34.71035919671451   15.39469475365581    5.05931841124689
Cl         35.47922453559419   18.50845115279212    2.32128802944424
C          33.55428231068377   17.94778646916047    4.87247351241364
C          34.20720290982772   18.80382571278234    5.96067916585885
C          41.78999127542080   14.40828388211180    3.30292833119275
C          42.15134513656855   15.70692352734142    3.03962484811115
C          43.52562683060123   15.86915210459932    2.83088796944579
C          44.23227064540191   14.69639028826344    2.90614510805275
S          43.18150688489828   13.36225922963224    3.29425562800511
C          45.67189037304032   14.52516975153801    2.85728493451348
C          46.33990404012505   13.45303793053294    2.27400769672320
C          47.73651902269636   13.22298207876298    2.50621607216365
C          48.51187598415284   14.09553680915990    3.26517013311413
C          47.86741187455414   15.25898598494896    3.75280248882680
C          46.46341355295320   15.47059658287444    3.55387401878100
O          45.73133277803107   12.53216707510862    1.47814929494688
O          48.34129141176356   12.08562848465644    2.04916020730399
N          48.42720424703042   16.24692738510737    4.44376129584809
S          47.29869800652405   17.33222049607381    4.81341789275903
N          46.04390673960298   16.60211448457558    4.11660625048446
C          49.91436655632182   13.89174447503765    3.53325685875307
C          50.65941381948458   12.74004126592563    3.46991146151541
C          52.01552757272857   12.93920912497881    3.78121422413141
C          52.29856781198062   14.23631608426659    4.07713285856757
S          50.90955082260727   15.24060940315563    4.00583372922885
C          44.70923949667402   12.92595239508969    0.57108167835217
C          45.06746212132289   12.47842040977728   -0.84182380409751
C          48.38172747724338   11.82717242386591    0.65097034543208
C          48.95702025141658   12.99634403421062   -0.13882275343764
H          -5.04501422012842    4.88784004192902    3.07474219138188
H          -5.57296310313492    2.36411578573406    2.77654590730214
H           2.00797027401758    3.75485958319780    3.55522755598295
H           1.60688314724716    2.34982695930784    1.78970546728375
H           0.70665961609556   -2.07138019266661    4.78602640795392
H           2.07152488497960   -2.16552853733454    3.65778945900285
H          -0.87118867586331   -2.55969943106804    2.91472524839185
H           0.32313034747000   -3.85047823126968    3.09741014685654
H           0.49001906486663   -2.66879953793481    1.79468817820367
H          -1.73561782467744    8.17736434083081    2.27032868640901
H          -6.48221393542956    8.98075373703521    4.75275494927214
H          -5.73104783471399   10.41560838822080    4.02951110353629
H          -4.98717550047836    9.20350338083330    6.73936196689515
H          -5.94514746176067   10.66886915223244    6.49555516234709
H          -4.24385723282491   10.63534475495013    6.02003787304402
H           2.62936629574543    8.43725360338700    4.40338303986938
H           5.21520970401067    8.67107029055628    4.60403189519884
H          11.36865110775327    3.55457369410688    3.99214740628434
H          13.93344975301653    3.91216584577787    4.18288397751294
H           7.30460356327338    2.83628965614964    4.77717323594715
H           7.26264924236245    2.24855327543673    3.09974160788408
H           4.82107647556156    2.69450328021193    4.88492270008581
H           5.49707323196861    1.13744553579892    4.37883875976917
H           4.76399460071222    2.21911879853456    3.18624080072761
H           8.11899265815216    3.84709306953681    1.46219171528923
H           9.41035631911195    2.61931635219704    1.55711657259115
H           9.84786575302154    5.64352157737846    1.30152967237451
H          10.00778299100439    4.46459247329969   -0.00598697626876
H          11.12461679434648    4.42478638308262    1.36780029836372
H          14.38380602548430    8.63201006304078    4.95980934736041
H          21.48675443037686    7.76146897776067    4.90534182964851
H          18.39771671328310    4.68405872179770    3.10652678716879
H          22.02294533687841    1.96232185834928    4.95733776530190
H          22.31941062325162    2.95875891096391    6.39355266293957
H          23.44398366511802    3.50688059304146    3.60339501684026
H          24.35088269551240    2.85133122368785    4.97029535023603
H          23.72874431265763    4.50496386800370    5.03328711897062
H          17.47479275466943   12.14241287800998    4.52654871712285
H          13.71698556563205   13.96234513244326    7.07041841095957
H          13.53464848440262   12.57898963696300    8.16280942703500
H          12.29918195330814   12.79702062394630    5.37440475477509
H          11.43404117343748   12.97110939920733    6.90470455062822
H          12.13522803955352   11.41123084442340    6.45719811413745
H          21.89743395212980   12.45324934376606    5.86979318908647
H          24.45583738661798   12.88714297454193    5.84664222224900
H          30.73451684733419    7.99360137797936    5.42663373785203
H          33.30757378056722    8.32297707451553    5.21022892910756
H          25.65277468805211   14.21286794617815    3.57396142101490
H          25.26959693800592   12.49030292547322    3.32764047874259
H          27.96576059050712   13.79589073953710    2.67615636754768
H          26.71354701392478   13.38100991698537    1.49419360269180
H          27.54456423735808   12.10566283120916    2.39419155201738
H          28.24659511843450   14.17605678120161    5.68354471976130
H          29.98916859431091   14.39750903680057    5.35910364137210
H          28.80253716128809   12.63138666273928    7.56584768216253
H          29.52788983624452   14.22476517151153    7.81093941345504
H          30.52800369713344   12.87355281483925    7.25733148114748
H          33.85182760368813   13.03391908644302    4.40528808290913
H          40.88840068473971   11.80609775517826    3.86255149096034
H          37.83130624865827    8.93995351308095    6.04727816125989
H          41.27420357604446    6.95769585040550    2.37568290394191
H          40.97853255003831    5.93421797316753    3.79334190541182
H          42.91934229305415    8.29997832131460    3.68925789161286
H          43.37603175564520    6.59324682409919    3.64801688258995
H          42.63152204601121    7.27397946546877    5.09805572657464
H          36.92433858832188   15.91213698105790    2.26059708920511
H          32.68811092862335   17.42933900735285    5.28801128583557
H          33.21799632516897   18.59140656810334    4.05664654113518
H          34.54502460874128   18.17665303895451    6.78255973607105
H          33.49521489220160   19.52975680035652    6.34462637886640
H          35.06425152905254   19.33655154474010    5.55611262543058
H          41.43606398050175   16.50928308218453    3.00036449347277
H          43.99446442775925   16.81205193120287    2.61947745385893
H          50.23637949551801   11.78399604576310    3.22880607870206
H          52.74706212827408   12.15065799718430    3.78513017348774
H          53.24447209570739   14.66312101278139    4.34633881400401
H          44.57129278702174   14.01121465257869    0.59344453908535
H          43.77418189785965   12.44474840355531    0.87929180688193
H          45.97136823011979   12.97367731619458   -1.18814169289403
H          44.25039532080314   12.73148596555040   -1.51201658942261
H          45.22049331676973   11.40277385839751   -0.86769163478658
H          47.39036766921094   11.55703151015093    0.27969929026361
H          49.03761174002432   10.95619524293950    0.57060359454557
H          48.30860671309747   13.86753103564836   -0.05963761132463
H          49.05129010090221   12.72139529058288   -1.18598891274624
H          49.93820898915620   13.26378489939170    0.24739710414123
