224
 SCF done       -445.262721861708          0.000992430729
C          15.62815956787692    9.00187080744251    7.09053257141320
C          15.11998621528672   10.25854403413395    7.45788125034760
C          13.77025374623981   10.58477425624027    7.18717561098062
C          12.89542692769326    9.71143713978113    6.55266335209592
C          13.42328254050301    8.48087479479901    6.12724115645060
C          14.77161078861549    8.15020167964176    6.40651449622468
C          15.80199543155875   11.33597402582029    8.09589164780528
C          15.00490941013216   12.39950047726185    8.32122586052174
S          13.37840188533672   12.17649642794577    7.77439139116368
C          12.76673375479013    7.45185016552071    5.41176056714363
C          13.54901347333414    6.35906414549079    5.18013240053333
S          15.16979803938543    6.55917690238742    5.81755513265177
C          16.98255977100880    8.60456747491862    7.43974125499749
C          11.49656819883237   10.03583298027713    6.33010875402392
C          10.39164765644798    9.29165660336889    6.64315995414984
C           9.17425282788017    9.90885107805644    6.25222925807974
C           9.34012141124354   11.12066115077378    5.65110393852182
S          11.02099473390599   11.51564272854936    5.55090033451404
C          17.56507498536016    8.60308683849866    8.67697273273490
C          19.34736001103124    7.77595227564010    7.42520982508748
S          18.10052393908353    8.01196146834253    6.24903494931689
C          13.14451939841864    5.15345729782291    4.53975442335279
S          11.45975069268646    4.88242667342724    4.21608566981089
C          11.80425616739971    3.31891968218630    3.53928491423504
C          13.15737759883295    3.05284047721441    3.56895352977927
C          13.90948841119905    4.08102432963616    4.13950093928110
C          10.71048855096672    2.50879020700009    3.09416558028116
C          10.80161353513810    1.26549817693634    2.48145266819309
C           9.68795728064555    0.48767542527008    2.12713478820653
C           8.36976833419303    0.86891075056561    2.35202688853778
C           8.24939481178856    2.14868386422720    2.94378598016834
C           9.37767508176755    2.93474920608859    3.29899668635635
N           7.15733465328538    2.84339917346864    3.29114040840416
N           7.62302338963824    3.94653111005288    3.80878175480851
N           8.91895776410546    4.06526794293375    3.84798150214752
C           7.21024824933014    0.06788431849843    2.09671362778637
C           6.74938221441400    4.95805151049193    4.33734260934228
C           7.32952262285087    6.34416492234936    4.10613720028484
C           7.10737827258577   -1.19845478928623    1.55891033589133
C           5.80328638877595   -1.69305816768100    1.55805103917923
C           4.88725170841349   -0.81133580708145    2.08808054068374
S           5.65200647897798    0.66879143501144    2.58361583637847
C           8.29863868575523   12.00979960106947    5.06684365066233
C          20.66346008048522    7.19106837539318    7.04822174354865
C          20.59885555505148    5.66167710776373    7.05560580943378
C           8.05370727347113   11.66765171826015    3.59500680626736
F          12.00945128306417    0.73549928619283    2.20741109874605
F           9.95719526523509   -0.70255323912947    1.55567012616060
C          18.90344173688913    8.12716575488280    8.66534897238177
Cl          7.64500923379578    9.18617867259156    6.53268522375050
Cl         10.43370101919271    7.80019053150433    7.49438379825509
Cl         19.85457926029363    8.01748746894278   10.08970706782094
Cl         16.75473981017388    9.04870425298273   10.12314155177656
C           0.19187411455109    0.03364688199634    3.57973771136541
C           1.32456900142370   -0.63558263139170    3.07361054656135
C           1.25757797553823   -2.01271388646810    2.73923911091780
C           0.11643218837280   -2.77227909558193    2.92918952954014
C          -0.98523367391133   -2.11622932966950    3.50769131446071
C          -0.95114522690214   -0.72859686262746    3.78522262244835
C           2.61103819370581   -0.10364236354781    2.82172457495398
C           3.49975589918955   -1.01447920432158    2.32807091305569
S           2.76772213989202   -2.59171317260636    2.09484379383039
C          -2.20045554900321   -2.70204095138565    3.90939529762512
C          -3.10452673575371   -1.82050645343879    4.43096005535735
S          -2.46256001043162   -0.19336253297486    4.48193436942051
C           0.23628630049426    1.45014554325007    3.90156820338686
C           0.01393029523549   -4.19254825248981    2.62934182247314
C          -0.96587910260943   -4.83478868161164    1.92258215146684
C          -0.87112015191589   -6.25120608288133    1.98150021823239
C           0.18931609761766   -6.69568688190015    2.71347112717222
S           1.09306892671133   -5.35684784432688    3.33934660728272
C          -0.61326234341620    2.44520346159309    3.50570254972329
C           0.83720865111242    3.70717785040706    4.82537953717107
S           1.46783246392083    2.09882605576613    4.94471935479765
C          -4.43887296132847   -2.20763107519094    4.75735178148093
S          -4.71813016895997   -3.92064875469597    4.85001920281208
C          -6.44094290972926   -3.69284125893163    4.77140540861677
C          -6.75287861187317   -2.35096796740921    4.80443566335484
C          -5.62672944650449   -1.51512479606160    4.80730579346134
C          -7.18504523094308   -4.85045200833811    4.35878910186612
C          -8.39431434849718   -4.84133241899469    3.67039764270284
C          -8.76865598083443   -5.84772510706972    2.76090418696180
C          -7.95926171780792   -6.93799933141756    2.46088056511602
C          -6.87035470533495   -7.09413890021905    3.34875544706701
C          -6.50344036354476   -6.08915098700245    4.27798901160561
N          -5.92608627376792   -8.04228235349637    3.39002920154637
N          -5.07988973442262   -7.61993648901437    4.28433680723608
N          -5.35253178719647   -6.47473193964505    4.84375323139029
C          -7.91543504258668   -7.62398088284976    1.19912236976664
C          -3.89317077305517   -8.35579212159634    4.61597522352180
C          -4.24664380009863   -9.70920772312925    5.21962643204408
C          -8.81549187921086   -7.73270847392957    0.16499021861110
C          -8.22810066654909   -8.14016640062364   -1.03967867200408
C          -6.86546248932073   -8.32359866738106   -0.94328280615169
S          -6.32219780437690   -8.10752976335578    0.68681168656970
C           0.57334816721469   -8.09607125152959    3.04095955905044
C           1.51846330248164    4.84528017605081    5.50183680497156
C           2.91512017211107    5.07367484170651    4.92129331960294
C           0.30142163175859   -8.41556152717898    4.51181402424501
F          -9.17891552879309   -3.74768284976722    3.72068495247251
F          -9.87754985317224   -5.62500601177538    2.02948349728633
C          -0.26539732963373    3.72214044608661    4.02578359565840
Cl         -2.02109986765876   -7.27390489045694    1.20867701825211
Cl         -2.17432797095562   -4.03623520076822    0.99888723485490
Cl         -1.16919380983414    5.13454227104488    3.65994260826909
Cl         -1.91744971068027    2.22520909220150    2.41630419418603
C          -4.60715164927066   -8.68247812638973   -5.42021953188844
C          -4.82082190893772   -8.52277846796914   -4.03949133129782
C          -3.76164922727270   -8.05331310013835   -3.22210581191639
C          -2.52650230942905   -7.67176217273293   -3.71691882256204
C          -2.33681799780676   -7.76881245944659   -5.10240253347831
C          -3.36972314242780   -8.29397847167460   -5.91881623199721
C          -6.00769915594632   -8.73744456752904   -3.29276579382669
C          -5.87787938918915   -8.43761335373285   -1.96847460091806
S          -4.24716330798861   -7.92868086901782   -1.56161829916902
C          -1.20335632512434   -7.38262597666434   -5.85507192743742
C          -1.34689504619792   -7.58486431084556   -7.19705941468160
S          -2.90295802955458   -8.28802509993885   -7.59557715336134
C          -5.63974990923864   -9.20983219966876   -6.29864480946432
C          -1.47989509714578   -7.15430325801064   -2.83743319985765
C          -0.71132373493537   -7.84767298117796   -1.94993166206801
C           0.22954841450094   -7.03012711484525   -1.26625897943326
C           0.15468914027624   -5.71176692440887   -1.59925282495621
S          -1.06229433606571   -5.46800592053881   -2.80760074185464
C          -5.55109963628668  -10.26136917796101   -7.16772074796380
C          -7.75329139791162   -9.62338408174167   -7.58814461165759
S          -7.22349582726077   -8.49663705162992   -6.38609920027635
C          -0.40931294047387   -7.28517689580942   -8.22461893659616
S           1.07216698569992   -6.45249929585809   -7.85974632023884
C           1.54727061380482   -6.49207014129348   -9.53240437474036
C           0.59331534419699   -7.12076438869778  -10.30456166938328
C          -0.50717897428527   -7.56208206531559   -9.56998836483705
C           2.79658611842473   -5.90453067994785   -9.91634141319591
C           3.34581154071561   -5.91981977386728  -11.19124618574703
C           4.57869111137932   -5.33230140772817  -11.51916304800856
C           5.39058907771734   -4.66866446437645  -10.60878520229839
C           4.85139302447520   -4.63557782822851   -9.30112323635888
C           3.60250040524848   -5.23021557127009   -8.96960847003088
N           5.33738092212787   -4.08654035275353   -8.17989437098835
N           4.43705444311102   -4.34184721069066   -7.27390156830466
N           3.38922647221788   -5.01088533188863   -7.66690493861769
C           6.65597495241404   -4.06046652451655  -10.90842072020384
C           4.59448558103691   -3.91897340967404   -5.91149875061469
C           4.65591736454145   -5.12603630146082   -4.98368616792945
C           7.33416217038598   -3.98431876823934  -12.10231614602770
C           8.55564588847409   -3.29981818593071  -11.99768262978455
C           8.80484009813880   -2.86299141754443  -10.73278300229839
S           7.55240071198131   -3.27606927978212   -9.63731800648188
C           0.99503347674576   -4.58711110125630   -1.10130897346635
C          -9.11366055478675   -9.53711041769230   -8.18686698966099
C          -9.11745479278524   -8.60686271960161   -9.40262259664133
C           2.18658551693584   -4.33860594158008   -2.02854149813886
F           2.69454700360323   -6.52610073881243  -12.20291955819742
F           4.95636898013613   -5.44710912026844  -12.80788745960940
C          -6.74860745897599  -10.49027898416437   -7.89747344042531
Cl          1.36973649772949   -7.66503717222341   -0.15583295137616
Cl         -0.84317063030353   -9.53830497784059   -1.69806075121865
Cl         -6.89885979412030  -11.75566395069293   -9.04618888095775
Cl         -4.17457019128250  -11.27026683606058   -7.32110570179740
H          16.84423125811870   11.30659149609036    8.35445354078452
H          15.26532058761684   13.33239564919730    8.78160786432571
H          11.75273284966765    7.51560426855198    5.06219749155931
H          13.58823322967616    2.14049628430851    3.20048481404298
H          14.97822101464841    4.05211089827164    4.25891667658141
H           6.62268260119532    4.78031940489782    5.41090657983498
H           5.78279069157953    4.82947214368702    3.84658189360364
H           8.30917817455316    6.41707684193206    4.56983092390590
H           6.67491165229771    7.09309075746118    4.54180143636909
H           7.43418205885227    6.54313886015190    3.04270478830973
H           7.94804277013844   -1.75480248653202    1.18884602939058
H           5.52851972437342   -2.66818717000188    1.19604080300944
H           8.62173330607885   13.04836265497122    5.15045092069804
H           7.37139184369288   11.88437648291020    5.62938625282428
H          21.41614076127940    7.52908044711497    7.76295298281882
H          20.94335196142495    7.53833091619902    6.05229261368793
H          20.33654916732759    5.30081527359411    8.04685927045216
H          21.56323977806829    5.24573673294613    6.77708095016037
H          19.84929132588285    5.31309285434406    6.34916884219597
H           8.96817490292876   11.79669213841460    3.02128750349561
H           7.28783060288083   12.31890270656567    3.18290023129434
H           7.72466989078315   10.63603541375550    3.49811566452187
H           2.88943105314198    0.91691585341726    3.00990823268336
H          -2.41261391869135   -3.74960843928805    3.80719829858079
H          -7.76248366594347   -1.98229397741390    4.77893838131953
H          -5.68113999422096   -0.44108867864847    4.77550265546568
H          -3.33349424950017   -7.73561301789357    5.31874084062374
H          -3.31375923838379   -8.49248299907486    3.69766513798199
H          -4.80257647658919   -9.58099745651374    6.14542073424501
H          -3.33891926597263  -10.26675535830418    5.43154090227762
H          -4.85435170479827  -10.27625972882647    4.51927938664608
H          -9.85831798292457   -7.49207889115310    0.26723363912221
H          -8.76945481097878   -8.23216042229085   -1.96402334259334
H           1.63597951151161   -8.23921410803942    2.83413645516523
H           0.00198623392691   -8.76983231562560    2.40089644881048
H           1.60365893510105    4.63669680454539    6.57100061474619
H           0.90820788222946    5.74020185427133    5.37197865487090
H           3.52221806599350    4.18027703028098    5.05071024338619
H           3.39929740427273    5.90573412635618    5.42573846498300
H           2.84772085148758    5.29977287239958    3.85968441157781
H           0.87908778979906   -7.75391448294103    5.15300157561814
H           0.58177197597250   -9.44309254707151    4.72742084381196
H          -0.75394487829422   -8.28616990535718    4.73903001588050
H          -6.92836645213133   -9.08198420749543   -3.72571975664130
H          -0.31344412329722   -6.96375353298471   -5.42058897847290
H           0.68396141382051   -7.25462173472842  -11.36614316555267
H          -1.35224765747435   -8.07186306165031   -9.99827103759724
H           3.74196505734529   -3.28786067846976   -5.64530006262815
H           5.51428841019633   -3.33377854776630   -5.87098467610050
H           3.75155960547139   -5.71939968900396   -5.09337445980692
H           4.74063696899240   -4.79295446596715   -3.95340650888481
H           5.51564773500217   -5.74641822725644   -5.22494309361476
H           6.97198827435339   -4.40120171759793  -13.02299889285801
H           9.22152672691761   -3.14258701842096  -12.82713599512596
H           9.65869739416879   -2.32071504767802  -10.37770599476801
H           1.35841924981941   -4.83337964982845   -0.10127188999816
H           0.38853217232413   -3.68237723139768   -1.03532477724191
H          -9.81596482162119   -9.16346800473872   -7.43983734663889
H          -9.42538577830419  -10.53775931458653   -8.49300541068983
H          -8.81202445370289   -7.60431787274628   -9.11217995345826
H         -10.11454767272495   -8.55821687096372   -9.83167382155431
H          -8.42943828065384   -8.97461830674105  -10.15965660390096
H           2.80583475004694   -5.23034930030990   -2.08647344185039
H           2.78788172236174   -3.51790285292176   -1.64650655440529
H           1.84073889276101   -4.08767246911405   -3.02865262566108
