278
 SCF done       -461.478945432264          0.000761034422
C          -5.25843372578193   -9.57980202515635    3.35993954732855
C          -5.29737922703978   -9.46914832559058    1.95163036195005
C          -6.39072002634233   -8.96595580739321    1.24989024536414
C          -7.49067112893967   -8.55019846248603    2.02458984756481
C          -7.44298037525356   -8.64821100680999    3.43680684648667
C          -6.34832310546411   -9.14365738894499    4.13419711745686
C          -8.70383438059361   -7.96705445661795    1.58187490627663
C          -9.55525958151821   -7.63350720018819    2.59262242022345
S          -8.89677317327382   -8.02313336245943    4.16834900756170
C          -4.05884886587381  -10.20925793221659    3.80652013433622
C          -3.23215257750963  -10.54249784131919    2.79550898291584
S          -3.84244736298343  -10.11301929455452    1.23519966076832
C          -6.31677097457212   -9.20737981992716    5.58288474372450
C          -6.37948604736081   -8.89379381360431   -0.19659870370647
C         -10.84467382584901   -7.04065839765744    2.48153070353424
C          -5.30118252859070   -8.84682374550771    6.42155159233603
C          -5.61046227749886   -9.03504102490233    7.78393904621754
C          -6.85299163092689   -9.54901883065843    7.99059690097774
S          -7.68081549760461   -9.79856642369753    6.48808731767864
C          -5.33582106033956   -8.55116149447969   -1.01070683648055
C          -5.65167176543325   -8.61472247527414   -2.38166037180531
C          -6.92638758056947   -9.02318913067563   -2.62730987730790
S          -7.77465933507867   -9.32485242606748   -1.14788807983005
S         -11.59408493257970   -6.81498406222336    0.93180651391972
C         -13.00690082523634   -6.09941138770543    1.67230678884843
C         -12.87976918113604   -6.04955018714111    3.04905496519550
C         -11.65991525232230   -6.58724922547493    3.48869232648918
C          -7.53041543210104   -9.85717597600473    9.28125275281693
C          -8.65955607762990   -8.86488506302243    9.56551874601679
C          -7.62106460064317   -9.17165248474121   -3.93648326041859
C          -8.63961870095836   -8.05028444999892   -4.15349609757321
C         -14.07265328236196   -5.70211788262972    0.81480508534050
C         -13.87750098790191   -5.47562742537087    4.00367278490687
C         -13.65178567186891   -3.97416023559737    4.19276861063589
S         -15.42763199923075   -4.74092234597229    1.34518085737094
C         -16.14272089131969   -4.77633637662132   -0.23585130533940
C         -15.36050634048020   -5.49043712589286   -1.12994148647461
C         -14.19213894724456   -5.99199432372010   -0.52190955683181
C         -17.35939823528620   -4.12156136426581   -0.49671733949247
C         -18.19150628334512   -4.30314113800320   -1.58963667166417
C         -18.04344396564126   -5.20824777182879   -2.73498788596497
N         -16.79223062603823   -5.62893188953100   -3.17791007991675
C         -15.54232707738363   -5.71044452978399   -2.57011209753347
O         -14.57876151577067   -6.03818055041853   -3.23620723790036
C         -16.81355666809593   -6.18128343401315   -4.53989684420823
C         -17.02469817333348   -7.68913385781051   -4.52121900348281
O         -19.03093894503078   -5.51709445191769   -3.37404814799982
S         -18.02647827942381   -2.97781785037047    0.62506044199836
C         -19.43081717879413   -2.72910086831207   -0.37898855151376
C         -19.36155357907295   -3.52355633273419   -1.49680684990230
C         -20.48685850062564   -1.83347126799621   -0.04448709397269
C         -20.56657544971378   -0.83732973253519    0.91233360424460
C         -21.79834981319848   -0.16517838678595    0.87683833393667
C         -22.66846841540759   -0.62667459012014   -0.07972601537282
S         -21.95824451269293   -1.92860342314055   -0.98323910637413
C         -19.50768707905297   -0.49071367754643    1.90971947627823
C         -19.65193430191079   -1.33575566320675    3.17703734324004
C         -26.11443231243971   -0.02211800194975   -1.29584399128908
C         -26.12909253965048    1.09789644874287   -0.42846053448221
C         -27.21945944253874    1.94852407307876   -0.29481260394343
C         -28.33242879693521    1.67234524216256   -1.11429001930554
C         -28.32294078280283    0.54425151773277   -1.96997537128322
C         -27.24690745925416   -0.32987311317105   -2.07610210158733
C         -29.53917609599715    2.40575140840846   -1.21973219544405
C         -30.44406206793110    1.85406602104621   -2.07847585755334
S         -29.83419105723052    0.39070807495004   -2.82664996783732
C         -24.87533787466753   -0.70442628643885   -1.25108155160011
C         -23.98611047828914   -0.17156995668562   -0.36470307132463
S         -24.63542126016536    1.23003412261596    0.46076831891809
C         -27.31049893539127   -1.49918528357911   -2.92898626216136
C         -27.23683733234105    3.05220030119085    0.64354846274168
C         -31.74395559491068    2.33134606602821   -2.40522287928331
C         -27.87010312176642   -1.60931695585680   -4.17113500073781
C         -27.79749333509722   -2.91157097400747   -4.70314708938930
C         -27.20223256900098   -3.80718850617772   -3.86925799909837
S         -26.69841281289073   -3.04269699466897   -2.39903118594437
C         -28.25339632306014    3.44212145680232    1.46973933406973
C         -27.93232263570131    4.56529393273080    2.25715273508220
C         -26.67622265241242    5.04005904504117    2.03651131119459
S         -25.85371653291224    4.09173623281303    0.84176779723459
S         -32.35099750011041    3.81631808699951   -1.74052771204053
C         -33.86374560431858    3.63297231654184   -2.59889032731449
C         -33.87546409543005    2.46861402046723   -3.34689641700839
C         -32.67549839233633    1.75078757856013   -3.23057180565834
C         -26.92137536347915   -5.25168630989036   -4.09999009986720
C         -25.42778601492949   -5.49820803057558   -4.32303988085141
C         -26.01236212545369    6.22801522831698    2.64254083122638
C         -25.96151082423035    7.39701269661294    1.65631558613907
C         -34.84488355976143    4.65087336431553   -2.43026634197853
C         -34.98877845722200    2.00194467044767   -4.22967235459235
C         -34.88998179514955    2.63883552068744   -5.61724664484754
S         -36.39433434432659    4.64377895775732   -3.23185187358770
C         -36.84232920398991    6.15392557271612   -2.50120325263202
C         -35.84095932662639    6.63089236738843   -1.66976396721808
C         -34.72734959345600    5.76791368550345   -1.64021017156449
C         -38.09372529565779    6.73948140631580   -2.75944952522295
C         -38.48604535960092    8.04019939596460   -2.48515618843075
C         -37.72472430117472    9.13784143319347   -1.87763906929199
N         -36.66255925364374    8.90192223607566   -1.00804214478662
C         -35.82370443464022    7.81177962654030   -0.79746755448248
O         -35.00637589972833    7.85794760073220    0.10280528321020
C         -36.29069805257374   10.08033496782940   -0.21161541011317
C         -35.19051073041830   10.88354479409269   -0.89207462803358
O         -38.09188789134476   10.28196409187511   -2.06333358674113
S         -39.35036569034204    5.85629488224747   -3.56779975587615
C         -40.41925180915892    7.23462707163737   -3.53325087494667
C         -39.79328876611601    8.30360614334854   -2.93994636696010
C         -41.73841736899660    7.22120478428373   -4.06945790721478
C         -42.50643050478057    6.18550062568233   -4.57474864327793
C         -43.77295214117968    6.61839877353527   -4.99330511174484
C         -43.99832213855014    7.96451674904600   -4.82160938570194
S         -42.61209176500120    8.73269239156703   -4.11757397992767
C         -42.07615241800745    4.75957395517380   -4.71308163891573
C         -41.33843209381408    4.53427521339870   -6.03446786284858
C         -47.30928953049210    9.23057974046451   -5.91016379974845
C         -46.84895073555484   10.51337683792040   -5.52397086223732
C         -47.61574684941802   11.66923399398710   -5.62982595631405
C         -48.89996810559303   11.51567304145260   -6.18935312493641
C         -49.35916794384193   10.23371597273442   -6.57965744593605
C         -48.60675973155035    9.07303178317332   -6.43882847933183
C         -49.86330108344491   12.51988859942440   -6.44824303600872
C         -51.02572497366530   12.04615830291012   -6.98081561020602
S         -50.98529114076334   10.30956838304397   -7.20767266790341
C         -46.32703338127356    8.23309588971108   -5.70089714911680
C         -45.17073293130168    8.70602159912032   -5.14852140571374
S         -45.23590249721363   10.43230650722749   -4.87025075027189
C         -49.15341047644653    7.78015406187461   -6.79867940718855
C         -47.11349857474783   12.94816646014072   -5.17160133317756
C         -52.17200584926261   12.80073848167946   -7.35591933529593
C         -49.93930343880400    7.46609731204743   -7.87145529631933
C         -50.34223693843020    6.11619642023475   -7.89491489954293
C         -49.88605974106190    5.39412189343397   -6.83608404961362
S         -48.92205898696003    6.38012207281764   -5.78600248244180
C         -45.84445921818549   13.44491692284620   -5.28251735712342
C         -45.68782525552658   14.71542301720572   -4.69528015802780
C         -46.82391617548285   15.19051873534691   -4.11601247364877
S         -48.12869917540775   14.06734062571677   -4.30216526846059
S         -52.22052817097457   14.51806662764558   -7.10921190302069
C         -53.82280743288553   14.61796303107442   -7.79597887644286
C         -54.27491621456888   13.37277885260029   -8.19576530505460
C         -53.33654476392148   12.36090329081227   -7.93567139356594
C         -50.08713288709450    3.94821141986149   -6.53825365674972
C         -48.78428587392621    3.16016335094055   -6.68560544758465
C         -47.05058457741542   16.49912617140667   -3.44163612824816
C         -47.90118247776855   17.42880139006515   -4.31012723084207
C         -54.43279449932967   15.90523646888092   -7.88318743399669
C         -55.59628266957967   13.07488401726683   -8.82972244808918
C         -56.65364476725505   12.75542208781160   -7.77024422647022
S         -53.43720275494172   17.32542590395372   -7.66925186773966
C         -54.79454921752174   18.38004624225756   -7.90117366917807
C         -55.95936812392034   17.66274966242538   -8.12527181201650
C         -55.73568565627044   16.26732562210416   -8.10469280919311
C         -54.64063090945753   19.77699779225798   -7.83208631137094
C         -55.56179667965849   20.74664797402520   -8.19207774518166
C         -56.91511447082301   20.60800265069017   -8.73751102219951
N         -57.66601637126400   19.44467437522664   -8.58820209227813
C         -57.34217966551947   18.12325054061504   -8.29584273797072
O         -58.23846189258170   17.30182706334374   -8.22051612557792
C         -59.08903371767573   19.63423550519191   -8.90706232401157
C         -59.37069046934491   19.35675899267656  -10.37755110902028
O         -57.43094934368401   21.57333679092390   -9.27118710051469
S         -53.14773796396763   20.48702280945049   -7.30450532555269
C         -53.76280377560354   22.10052726858656   -7.56147320366336
C         -55.04623952463054   22.05405973080895   -8.03549705495134
C         -52.93150433298187   23.22774039218479   -7.27212980657711
C         -53.00479674430233   24.52360349161351   -7.74278060599702
C         -51.97921685298169   25.33237331189167   -7.20102407741278
C         -51.15211340494142   24.66836334747351   -6.35308334453401
S         -51.58823642114341   23.02150480671673   -6.17818412548675
C         -54.02066781096748   25.00356708097770   -8.73397623151038
C         -53.60360350803827   26.26916692022774   -9.47627688052824
H          -8.94417579490728   -7.78087502071903    0.55120168591580
H          -3.85137657599382  -10.41803692807397    4.83981513872628
H          -2.27565883640957  -11.02389171269022    2.85593298485459
H          -4.37567035143759   -8.42255439076342    6.07441663374183
H          -4.93023669032894   -8.79781582535809    8.58306947531192
H          -4.38058749288971   -8.22657681404384   -0.63946642852748
H          -4.95236411263033   -8.36791135565478   -3.16087495383753
H         -11.37726611266248   -6.64402048061516    4.52552046928396
H          -6.79153404658033   -9.81676100991661   10.08443438917853
H          -7.94397367673022  -10.86834273979557    9.24703842116103
H          -8.26777871614248   -7.85162955895804    9.61924952131162
H          -9.14256158888058   -9.10260821868803   10.51002281060287
H          -9.40301346681369   -8.90588445496312    8.77268041710139
H          -8.13634613315990  -10.13473756536622   -3.97375302664011
H          -6.87455477704335   -9.15132187618748   -4.73336417051618
H          -9.39784343891689   -8.07298350006553   -3.37410940418716
H          -9.12923835767482   -8.16626133775804   -5.11690649964889
H          -8.14665534149373   -7.08100729825228   -4.12776455958511
H         -13.76705322455304   -5.97857277511983    4.96637130860178
H         -14.89347094563411   -5.64989841389890    3.64477435426860
H         -12.65243947828097   -3.79004145262904    4.58043930137695
H         -14.37826539514020   -3.57095019646620    4.89337466937829
H         -13.75663700520015   -3.44882937551856    3.24670343531700
H         -13.46365880484502   -6.56251930444015   -1.06966556895448
H         -15.85764978694666   -5.93689386729113   -5.00478025958635
H         -17.62676381257942   -5.69519371540047   -5.07956876902030
H         -16.21840842152216   -8.17502760793091   -3.97663735598714
H         -17.03600383412384   -8.06699676330572   -5.53971798089917
H         -17.97391456511581   -7.92752608270506   -4.04765164062519
H         -20.12635343229277   -3.54852819558726   -2.25222765373001
H         -22.05018378870648    0.64484097283441    1.53909201437058
H         -19.60727569038618    0.56491079154764    2.16987878638383
H         -18.51545597437447   -0.64217630510826    1.48086229828170
H         -20.62555301498913   -1.16850780178118    3.63190635435480
H         -18.88040807747602   -1.06967543940573    3.89476108670093
H         -19.55692684658587   -2.39360640392149    2.94489611562186
H         -29.72988588336413    3.32396254713698   -0.69432036646777
H         -24.63379215589872   -1.55896276616355   -1.85641220924080
H         -28.28761573644810   -0.77539995030187   -4.70581484575759
H         -28.17849873365591   -3.17492362916247   -5.67404308972817
H         -29.18756406308631    2.91423995321120    1.54283258972852
H         -28.61160747497979    5.00275217991398    2.96736013374274
H         -32.49111356605639    0.81960162834765   -3.73755518576855
H         -27.48506852263034   -5.58264181250273   -4.97488597467595
H         -27.25475101631758   -5.83416198801744   -3.23720720273433
H         -25.07588586308092   -4.93699920187155   -5.18572710262001
H         -25.24160836552413   -6.55503909486199   -4.49602333463216
H         -24.85895302943554   -5.18355272770395   -3.45099141976935
H         -24.99424067836440    5.96751606368998    2.94166415338283
H         -26.56779273241637    6.52399766806352    3.53496617477651
H         -25.39874867108612    7.11560497254270    0.76913255677498
H         -25.48143835428938    8.25742973156636    2.11559724308124
H         -26.96697515923025    7.67952262395364    1.35280695712892
H         -35.95582126793565    2.24190024672831   -3.78398070641196
H         -34.92209355265120    0.91672509152253   -4.32802029083346
H         -34.95579309192155    3.72172426217515   -5.54786955787491
H         -35.69812320049858    2.28405203280549   -6.25137684453617
H         -33.94144723627408    2.38056635321510   -6.08254861819639
H         -33.85966501875020    5.97852803452164   -1.04096037711905
H         -35.95218309171254    9.72149557133695    0.76118996807758
H         -37.18479436387666   10.69292863990275   -0.09373456552735
H         -34.29920869643177   10.27244767844816   -1.01416252255668
H         -34.94108656134304   11.74750483871314   -0.28247829331163
H         -35.52785136924713   11.22731231660773   -1.86675260668798
H         -40.25511856972625    9.26755270518915   -2.82175122268481
H         -44.50638802170553    5.95283175760825   -5.41107672094822
H         -42.96346376294050    4.12397480670769   -4.68540317827399
H         -41.43060801427205    4.47409992251363   -3.88062354231066
H         -41.98582318932120    4.77901492130099   -6.87329279762837
H         -41.03271081445290    3.49493297135913   -6.12043825923589
H         -40.45144223479841    5.16019530033393   -6.09015114766654
H         -49.70895137243857   13.56713793992186   -6.26311382834433
H         -46.46694185077385    7.20082795732750   -5.95980158852449
H         -50.19200994649209    8.17077867504104   -8.64276150337894
H         -50.95526367546586    5.69650981487959   -8.67286542715419
H         -45.05393992318866   12.93556039456860   -5.80322917108882
H         -44.75864707700458   15.25720552957350   -4.70040729845786
H         -53.50218890330091   11.32482983136471   -8.17534146401536
H         -50.83816989161174    3.55175305427935   -7.22465530958254
H         -50.46123595479193    3.83110439068712   -5.51770887517926
H         -48.39588796148270    3.25655779974172   -7.69717135724939
H         -48.95421570350683    2.10695859890553   -6.47676276025248
H         -48.03744792526808    3.53659437835120   -5.99002241337075
H         -46.08238877978388   16.96308015057560   -3.24212907595756
H         -47.55757503510902   16.33922321155426   -2.48669403567527
H         -47.40987769092635   17.61067488343178   -5.26333759545652
H         -48.05139114057390   18.38146914243778   -3.80874023758838
H         -48.87332233156584   16.98043459382926   -4.50287828651591
H         -55.47901297019725   12.20947472293728   -9.48542721537445
H         -55.91869138692543   13.91923340168132   -9.43984873984044
H         -56.35806312731838   11.87955087723267   -7.19718717160225
H         -57.61129341807916   12.55447904402337   -8.24378406224958
H         -56.77462246411529   13.58752102785519   -7.08097545760198
H         -56.55264573613188   15.58269576698922   -8.22486620363659
H         -59.34522674701646   20.66586012327757   -8.66446199578797
H         -59.65775367625501   18.94997234985955   -8.27654299127002
H         -58.79626912951976   20.03600411738704  -11.00262432328506
H         -60.42803100388154   19.50422207112489  -10.57873758209617
H         -59.10736008809133   18.33070703700772  -10.62341193439856
H         -55.65124268077580   22.91479397862977   -8.24472359250936
H         -51.85559591082648   26.37353382466041   -7.43408991541781
H         -50.30726067648745   25.05080667613342   -5.81575744765193
H         -54.96479876165237   25.19309541558727   -8.21335542707947
H         -54.20277795184781   24.20622714443832   -9.45898461754327
H         -53.55609060071569   27.12214231440586   -8.80407796554833
H         -54.33141776964199   26.49275220270845  -10.25263686922956
H         -52.63134247482179   26.13623057730044   -9.94511467889395
