185
 SCF done       -354.860708214296          0.000737095453
C          -3.76327540176127   -4.43372870340224   -6.75831448846041
C          -3.12715126736190   -4.05541521919394   -5.55894349267997
C          -1.79279983053612   -3.57837605899037   -5.58071130198373
C          -1.04514730672585   -3.44473006193503   -6.74652269394968
C          -1.67345418195621   -3.83800448172440   -7.94235593024793
C          -3.00586339999498   -4.31398545823419   -7.92228069663873
C          -3.66747209068451   -4.03263454373469   -4.25195779174928
C          -2.79557240653405   -3.57786570037048   -3.30385723179597
S          -1.24566613380049   -3.13697911824343   -3.98322048663923
C          -1.11925718960272   -3.88668563636870   -9.25526489976490
C          -1.98242762202700   -4.36353218986756  -10.17447096764183
S          -3.52536372907470   -4.78061857506367   -9.51950622633134
C          -5.12476556733245   -4.92542282031472   -6.79943098149512
C           0.30081260503324   -2.90774046357043   -6.70406182585480
C          -3.03932691029543   -3.47283739776999   -1.91023128849323
C          -6.06728555152042   -4.69295420157525   -7.76239305857769
C          -7.27561791869312   -5.36412984053307   -7.49674754233319
C          -7.29186538876666   -6.11721684418850   -6.36035449375910
S          -5.75496164851470   -5.99893137160915   -5.57656888557168
C           1.26332213810475   -3.13082692204174   -5.76054993346715
C           2.43134278682185   -2.38472501162452   -6.00937781495923
C           2.38948674109759   -1.57834201868123   -7.10744113501361
S           0.85452969290262   -1.75156360733885   -7.88564636554587
S          -4.55093564498925   -4.01416098526382   -1.23020027894718
C          -4.08571758159677   -3.61029705821716    0.40319256591514
C          -2.80397794710996   -3.06612556382348    0.40462950762916
C          -2.23203452411347   -3.00002279993152   -0.90090046491472
C          -1.89114980798960   -2.54508665518126    1.36242801632191
C          -0.70998362601096   -2.11688826570428    0.82350328261572
S          -0.63276881098046   -2.32578381381720   -0.90951629020062
F          -2.15088065384910   -2.47224276824894    2.66503369908553
C           0.43569891121964   -1.52449470953898    1.52120884278961
C          -8.40406936773820   -6.93883206188284   -5.80698431394800
C          -8.01440673192917   -8.41159521018946   -5.68395009354565
C           3.45578034620011   -0.68933386162608   -7.64698163389395
C           3.98126829210551   -1.19518396311960   -8.99112442959578
O           1.41305636448705   -1.26337324601982    0.64279970850945
O           0.49524898520509   -1.31199689202441    2.70475593181637
C           2.59884354015912   -0.65707735858292    1.15443008209736
C           2.44020751175771    0.85137242480265    1.27903194468707
F           3.51221127362981   -2.46208038960627   -5.21200984500049
F          -8.34285921663397   -5.25973035396014   -8.30895990726291
C          -6.65670913735851   -4.32419028110203    4.91282406204458
C          -7.93771241969945   -4.88698511622821    5.08976887286245
C          -8.70037201787160   -5.28421866916072    3.96155475639599
C          -8.26383390275014   -5.13988926907736    2.65082336532893
C          -6.97615016242494   -4.58713816079774    2.47613113235147
C          -6.21922916080543   -4.17427485896363    3.60167390660388
C          -8.64058841381779   -5.09339731136004    6.29876047891176
C          -9.88192483936647   -5.63956400554087    6.12308391000225
S         -10.25411288752271   -5.91750637040602    4.43574725277795
C          -6.25557184778824   -4.42140475719170    1.27647371301156
C          -5.00752372271040   -3.87671995700989    1.44790851181575
S          -4.66548253559305   -3.54828153902571    3.13111142615509
C          -5.82864064715809   -3.95184401116913    6.04118800399133
C          -9.07772769010878   -5.52454018872774    1.51736737529665
C         -10.82400669651868   -6.00110465890181    7.11898923826621
C          -5.63566072162917   -4.63637802104711    7.20892273431250
C          -4.72362642954164   -3.98099133789842    8.05763451989584
C          -4.22216905322400   -2.80550303990747    7.58090948537532
S          -4.88343148400051   -2.48874296293187    6.01631551670121
C          -9.20914810989246   -4.88730903780375    0.31453820471540
C         -10.10078099825703   -5.55839399214818   -0.54348259641519
C         -10.65369090727910   -6.69733527585365   -0.03782002118295
S         -10.06286039794086   -6.96107517669571    1.56607522735533
S         -10.45802338050383   -5.88096891010225    8.81994889034823
C         -12.00897371540682   -6.51812041959612    9.30896339659367
C         -12.77919144585287   -6.79750580238986    8.18197573742148
C         -12.09549958859508   -6.50677869625040    6.96507350061928
C         -14.07417834318067   -7.31467350262489    7.89913612377382
C         -14.35088036996166   -7.40928360308042    6.56356319271706
S         -13.03363326294240   -6.86757872156410    5.55172717320805
F         -14.94561234403255   -7.67807060843456    8.83526099400723
C         -15.57445951498379   -7.89711504696630    5.92067434536209
C          -3.21999275106566   -1.89882736876175    8.20527913919516
C          -1.89672333190861   -1.92821775913753    7.43795386559785
C         -11.65635395853193   -7.60396130545248   -0.66283970226316
C         -12.99303582395890   -7.53988638943096    0.07805104016009
O         -15.43582241937386   -7.83523611397235    4.58971240242737
O         -16.55597712468538   -8.29933474850159    6.48997416094875
C         -16.53490936608705   -8.28904369826922    3.80082372849363
C         -16.02956084876172   -8.58061134615454    2.40032068914689
F         -10.37636038147801   -5.10689727277472   -1.78235539674265
F          -4.37682946880268   -4.48620738161630    9.25595296549658
C         -13.92245727237253   -7.56287228557958   14.07401147824081
C         -13.24257507055032   -7.49070891708773   15.30703923620054
C         -11.89540999480118   -7.05053712915710   15.34756157828611
C         -11.18879952796226   -6.63514601387463   14.22601970713428
C         -11.86827786716817   -6.71323335514204   12.99177983723374
C         -13.21283343825075   -7.16095559325673   12.94759702959423
C         -13.74226695665846   -7.77198188952114   16.60126931663590
C         -12.82133251672558   -7.58700732511876   17.59260482990517
S         -11.27849835387113   -7.03760516257786   16.97739764583814
C         -11.36063655220570   -6.45663378443497   11.70165480210578
C         -12.26582506823926   -6.68089109511088   10.69474744786869
S         -13.81165522103406   -7.21736250975323   11.31574622731628
C         -15.28055339996631   -8.05961842133886   13.98749659244740
C          -9.83750440095442   -6.12407768971561   14.31690380767060
C         -12.97431507244493   -7.79442686594853   18.99049532846287
C         -15.82969333809388   -9.12611848704367   14.64308660196660
C         -17.17903976822996   -9.32029748059257   14.29236932515531
C         -17.68278921729643   -8.43129478412632   13.38921457924386
S         -16.45167634926987   -7.30331500602310   12.94272525477547
C          -9.29626557713374   -5.05236961122380   13.66301857822202
C          -7.95987852524606   -4.82328183176281   14.04266651973087
C          -7.45500623309517   -5.69712461637756   14.95978056332181
S          -8.67078671987873   -6.85014966097782   15.38764862646835
S         -14.49504607883492   -8.28111989429350   19.70126593342312
C         -13.84925617144268   -8.31145047131406   21.28744933681926
C         -12.52158821792557   -7.96828323925010   21.29035585893257
C         -12.02891913317172   -7.67482987777909   19.98282352649569
C         -11.48677264989671   -7.83152008319492   22.26146116739169
C         -10.28618508383192   -7.46595712706447   21.72804785437019
S         -10.34440169747248   -7.25607362878079   19.98763906578313
F         -11.69931502594105   -8.05416744690278   23.55529641829653
C          -9.00686408674830   -7.24203391514295   22.41153899927267
C         -19.06313246519144   -8.35164913957965   12.83656639575325
C         -19.78720858369087   -7.09206076989661   13.31415684791792
C          -6.10601388645026   -5.71153243203015   15.59017021265725
C          -6.19251440521126   -5.42510303472001   17.09039654833822
O          -8.05323074145829   -6.99616576300919   21.50197791466371
O          -8.83405898155395   -7.28200202049421   23.60169638382061
C          -6.74080307921181   -6.72282757215830   21.98992697814660
C          -6.56590287696374   -5.24245549060033   22.29588512772909
F          -7.23924282920045   -3.80707846394125   13.53489245377761
F         -17.91387516441749  -10.32122608314048   14.81296191586275
H          -4.67000257883748   -4.32816827219416   -4.00442205647045
H          -0.11397820939855   -3.59056851646685   -9.48914881381662
H          -1.81652747838196   -4.50238306022172  -11.22476087997502
H          -5.93407297780452   -4.04517403199544   -8.60813815737601
H           1.17221465580063   -3.81852496304945   -4.94113613601564
H          -9.26594177038542   -6.83380142491563   -6.46928253597193
H          -8.68374256390229   -6.55639830860201   -4.82105159182926
H          -7.74926908820351   -8.81711176809989   -6.65761003809011
H          -8.84530779439368   -8.98624446932554   -5.28331030758965
H          -7.16079955025604   -8.52177186544712   -5.01865601826156
H           4.26975079534377   -0.65240744057373   -6.91991906821759
H           3.06026279366799    0.32195638383193   -7.77308245939507
H           4.39314298899377   -2.19618693518165   -8.88501163260599
H           4.76265196328793   -0.53565298109875   -9.35927519652977
H           3.17697058435017   -1.22582568042927   -9.72303372648798
H           3.37895927696028   -0.91508835374810    0.43559912643935
H           2.82672573585531   -1.09653654114755    2.13125634157066
H           2.16520941173733    1.28064148710184    0.31851587446624
H           3.37754140822322    1.28932882912800    1.60934247600947
H           1.66668967407638    1.08493022633360    2.00681554278378
H          -8.26178848649044   -4.82654197827938    7.26820983669482
H          -6.61973626393428   -4.72150407694572    0.31108782453178
H          -6.07474805102241   -5.58884226890977    7.44075844204088
H          -8.74021973809116   -3.95535674223715    0.06004833412895
H          -3.06076892577043   -2.21848261910393    9.23734662794655
H          -3.60782929863544   -0.87712618464756    8.21618147847970
H          -1.47763495291555   -2.93153474148043    7.44324404928057
H          -1.18242138721013   -1.25163059866748    7.89919384304769
H          -2.04849231087365   -1.62456367130350    6.40470427907680
H         -11.28377776533586   -8.63118002578002   -0.64461260421636
H         -11.79210849581720   -7.30464236885308   -1.70409889775566
H         -12.85935550821352   -7.82567482356957    1.11892548332167
H         -13.71023651489091   -8.21425039456987   -0.38254115753437
H         -13.39404555231828   -6.52958412155786    0.04547285588149
H         -17.30206616671468   -7.50622973880203    3.78904490980684
H         -16.96280730988621   -9.18067162138206    4.27206185344565
H         -15.59128281529906   -7.68556389528165    1.96791968710059
H         -16.85471131388898   -8.91181064600147    1.77678485450326
H         -15.27069603321260   -9.35808214100511    2.43007509059959
H         -14.75225046677306   -8.07899077238921   16.80183286619604
H         -10.34791127917007   -6.15365668323325   11.50693567368340
H         -15.29452663002309   -9.77837809019455   15.30781214687472
H          -9.83100541299297   -4.41730992565820   12.98160856944382
H         -14.47002476002520   -8.57835840900295   22.11838190367537
H         -19.61260145623247   -9.24004845269051   13.15511356133513
H         -19.01584056718733   -8.34738766868399   11.74471089101216
H         -19.85974799770824   -7.08353053398383   14.39937010602127
H         -20.79081626132870   -7.05793114225240   12.89879978758388
H         -19.24672966859004   -6.20382309901840   12.99495386646885
H          -5.48829687356491   -4.95646519841264   15.09962279764101
H          -5.64103242305336   -6.68879777042029   15.43674240882111
H          -6.63205223927752   -4.44557114831499   17.26396541161500
H          -5.19958235560605   -5.44359920435874   17.53215523056534
H          -6.81053951624005   -6.17290669283826   17.58284161979713
H          -6.06837632272847   -7.04322593846247   21.19118036272114
H          -6.56706389052124   -7.32115822260296   22.89050968067604
H          -6.78438594570657   -4.64848981337000   21.41138494868138
H          -5.54295575078446   -5.05398322347552   22.60837709566307
H          -7.23863307735075   -4.94604522282223   23.09740757220171
