191
 SCF done       -374.260277732224          0.000838305680
C          -2.83663198784145   -4.05708869627993   -6.18088288428208
C          -2.43718591363209   -3.75499664620870   -4.86365045041381
C          -1.15657304727291   -3.19962586759874   -4.61927132873830
C          -0.22995547701279   -2.93216707921231   -5.62440985131080
C          -0.61926473282527   -3.25970625611510   -6.93765073219561
C          -1.90348438207078   -3.79929800994296   -7.18407144332525
C          -3.19301521913672   -3.87485397896071   -3.67374803761855
C          -2.53633523692908   -3.43641753212231   -2.55953316294688
S          -0.93146065803639   -2.84525983459656   -2.92558750940826
C           0.14967115933295   -3.17324811263265   -8.13533706865615
C          -0.51555474762465   -3.61187738547241   -9.22280402612420
S          -2.11881223247048   -4.15358728974844   -8.87683986219008
C          -4.14317240309241   -4.59222458223923   -6.49685883907248
C           1.05027533689701   -2.33400173184171   -5.31090655267999
C          -3.02027336520404   -3.44514036277758   -1.22549246255918
C          -4.92215528130325   -4.29054067461002   -7.58020544714713
C          -6.11903279588463   -5.02424853550107   -7.61405152470905
C          -6.28805982955642   -5.89440856441116   -6.57008634712296
S          -4.91971225576144   -5.80456793269403   -5.50784139704929
C           1.82650165362001   -2.54404405499795   -4.20523716546320
C           2.97194008406997   -1.73052276563296   -4.17602669788613
C           3.10194908540833   -0.88488284170640   -5.24548195557687
S           1.76440931686622   -1.10534220459896   -6.32846765782021
S          -4.52290046963012   -4.23377063967580   -0.82238773067265
C          -4.39660575578756   -3.84122773080955    0.87295025513503
C          -3.22983986607776   -3.11715273219260    1.10339323306091
C          -2.46701260684289   -2.91098357018703   -0.08396649105389
C          -2.56460917791318   -2.53477384824145    2.21742587132417
C          -1.38492257079252   -1.92234531968623    1.89723054738915
S          -1.00296497674503   -2.02208593505014    0.19465650904898
F          -3.03339836737250   -2.58323292234549    3.46065857005560
C          -0.45649937623916   -1.22446266363804    2.79203487112697
S          -7.59225128618135   -6.99392940232645   -6.19524342830319
C          -9.03845535168839   -6.06589104982532   -6.84734420323240
S           4.30303498933788    0.31273797701345   -5.66156471965220
C           5.73657419460112   -0.19389189250192   -4.62991230533881
O           0.58350923384916   -0.75737477169694    2.08692083475320
O          -0.59709830623824   -1.09660342241554    3.98077045720354
C           1.57500301083997   -0.02520172617994    2.80517341760202
C           1.16651800679931    1.42958001924881    2.98712441966169
F           3.85245369608030   -1.80366999313638   -3.15911451155817
F          -7.01248471889303   -4.86248508903357   -8.60697174990913
C           6.95696886850506    0.58613422604096   -5.07543104820018
C         -10.31418136824368   -6.69408795317048   -6.32617542949221
C          -7.66186475254458   -4.87804676038083    4.83444925564513
C          -8.74237191870362   -5.78464914765892    4.84339611228981
C          -9.06673292738157   -6.51486837116848    3.67191247994457
C          -8.38383921547074   -6.37909813486378    2.46635915726799
C          -7.30678539676522   -5.46395342255350    2.45793383357982
C          -6.97818936922089   -4.73917561415044    3.63191943426321
C          -9.63637416010633   -6.05948065185517    5.90329629693916
C         -10.60188716341689   -6.97300972043798    5.58366939227728
S         -10.45713176274437   -7.53616319650410    3.93300138357900
C          -6.40711323872129   -5.18337458461195    1.40980457797205
C          -5.42276355152701   -4.28836048104883    1.74550795869559
S          -5.57778877548133   -3.73551692507047    3.39667944578929
C          -7.28740036655298   -4.13779233737329    6.02011154772401
C          -8.77098210822617   -7.14156732338012    1.30046859745128
C         -11.61541885807447   -7.49325706630907    6.42814187724464
C          -7.21999382772256   -4.58254239427998    7.31144538221431
C          -6.83986767574209   -3.57418214999870    8.21295071185611
C          -6.60638053362365   -2.35188615160822    7.63865250330538
S          -6.85527267714078   -2.44905583011673    5.92566488691757
C          -9.27250070092627   -8.41464024046149    1.26645803156976
C          -9.61580263446852   -8.83463384502937   -0.02828696316842
C          -9.38598957474655   -7.90947528892266   -1.01210934215686
S          -8.72161593542933   -6.46805164027015   -0.31153963437802
S         -11.71111326981733   -7.05991502569792    8.11507541339531
C         -13.08446981740292   -8.08849664223154    8.41090366122652
C         -13.44997864423316   -8.74234906055990    7.23595981023073
C         -12.61520377377276   -8.39478463971763    6.13447944845191
C         -14.40530312008437   -9.71543282429347    6.83383945467755
C         -14.31656235297498  -10.06721542024597    5.51662376925595
S         -13.03880075105414   -9.22685236940527    4.67248369634380
F         -15.29689673405455  -10.25246709326930    7.66471671548311
C         -15.12996335230464  -11.03587951269952    4.77318139587808
S          -6.15834341931141   -0.81316546203681    8.32954816549947
C          -5.25826802921451   -1.32829614566337    9.84740419866515
S          -9.65394181702631   -7.96831662939673   -2.73658494313824
C          -9.44746317708822   -9.76251302349536   -3.07717130672294
O         -14.71468163876775  -11.08589251292428    3.50195751103138
O         -16.03362159002910  -11.68875572911619    5.22614151239877
C         -15.40406364796361  -11.98685418995737    2.63582555733328
C         -14.91718507136727  -11.74654774552895    1.21970201637492
F         -10.13027282248570  -10.05829473373566   -0.25165372003759
F          -6.72877048792130   -3.82042788357633    9.53234093100946
C          -9.36105839602336   -9.98214321007030   -4.57319064547222
C          -4.48331838137846   -0.14013716870513   10.38057145041285
C         -13.82017685551881   -7.77166168800103   13.57225442155742
C         -14.94356234057306   -8.17235865093734   14.32726017281333
C         -16.06935244051469   -8.73129424629672   13.67556065571765
C         -16.13529843412308   -8.96189592362480   12.30302271747480
C         -15.00366486803626   -8.57543167708874   11.55131213186947
C         -13.88037339593973   -8.00608235317190   12.20270845493047
C         -15.10435137609384   -8.14716842266476   15.73371154950808
C         -16.30727014749872   -8.63845602362377   16.15279195364688
S         -17.30990197057417   -9.16492635185983   14.82101384798756
C         -14.83221367024966   -8.63367588018092   10.14915359306601
C         -13.61961834298578   -8.16369414578433    9.72461382003763
S         -12.63541173248266   -7.59093421462671   11.06152117693821
C         -12.68305637004699   -7.13612382844533   14.19909284699592
C         -17.28569775086501   -9.59074384411557   11.69781035454682
C         -16.80656161673591   -8.75618266893234   17.47822068041320
C         -12.68549050797057   -6.20832657580640   15.20376173878169
C         -11.39397107438538   -5.77931270070777   15.55343158975300
C         -10.38267827342231   -6.37437025587611   14.84627736587335
S         -11.04814188904487   -7.49351873885925   13.69912921070011
C         -17.34568991774056  -10.50437477333965   10.67825510315499
C         -18.65221623357941  -10.95076658516650   10.42607562861326
C         -19.61518642680104  -10.39249812919399   11.23004305217146
S         -18.88504657983692   -9.26366531417568   12.32247304911872
S         -15.87013171511429   -8.28655591540550   18.87709157789692
C         -17.11505656912470   -8.72078612556782   19.97106219421450
C         -18.21284856891112   -9.20521007799387   19.30738908477706
C         -18.03276585900929   -9.22328875078305   17.89124076201204
C         -19.50333340187683   -9.69948042532983   19.65798279293205
C         -20.25648951648964  -10.06513131993216   18.58140076189822
S         -19.42707532266664   -9.82999108178343   17.05354921617480
F         -19.90746219637764   -9.78193954507307   20.92206512722241
C         -21.61686066647473  -10.61436329019140   18.55955333732494
S          -8.64873954309977   -6.18114255739002   14.88882744412957
C          -8.38110510155028   -5.44087882323038   16.54928243367429
S         -21.32366225360200  -10.72423810929740   11.20239937522527
C         -21.84599666592876   -9.84561723626149   12.72586486812474
O         -22.00498036917005  -10.80263408949989   17.28963030670094
O         -22.28851901800747  -10.85221100820843   19.52881209377140
C         -23.29665950809895  -11.37426831657812   17.08521682534873
C         -23.24492871665283  -12.89367997707132   17.15111676854729
F         -18.93172748633709  -11.87225777689869    9.49537880764487
F         -11.20587412747224   -4.84543425141227   16.50701002028656
C         -23.31890502802876  -10.09715774351159   12.97810817576470
C          -6.89952279230770   -5.47737095255835   16.86614529179407
H          -4.19634861962093   -4.25561324249845   -3.62792125290467
H           1.15987282377513   -2.81162761867125   -8.17150904044485
H          -0.16689630229516   -3.65434902682455  -10.23596040973391
H          -4.67930797666978   -3.55578051026339   -8.32458870623324
H           1.62215678754359   -3.26761151436407   -3.43862057153964
H          -8.99789056149748   -6.09764155390157   -7.93480514250707
H          -8.93209932039037   -5.03837640429623   -6.50168979148311
H           5.87567868942680   -1.26472461122142   -4.77115024770335
H           5.49301068707677    0.01317730615791   -3.58924321841302
H           2.48009674964038   -0.10994725836542    2.20052143269616
H           1.72800242213333   -0.50060183238142    3.77984548518262
H           0.97561459823353    1.89021982820034    2.02069115285379
H           1.96327513043566    1.97105081870005    3.48887625574509
H           0.26524164052211    1.48876643059521    3.59260549034785
H           7.18027530921945    0.38431680873842   -6.12057372452831
H           7.81479818141110    0.29803420803941   -4.47195527632470
H           6.79092336026957    1.65459362322040   -4.95810910733542
H         -10.41694028705081   -7.71018135330401   -6.69936963340723
H         -11.16879992997711   -6.11171766798680   -6.66281550903305
H         -10.31219399580949   -6.71953390265476   -5.23883813618956
H          -9.59193419680165   -5.58490991377585    6.86613467044187
H          -6.44954117187985   -5.63930264575913    0.43788187795697
H          -7.39680780320006   -5.59584246552517    7.62137260412713
H          -9.37693840878703   -9.05790161867823    2.11965617907185
H          -4.59230842270206   -2.14208715456597    9.56433268535267
H          -5.98958109349790   -1.68297664378592   10.57187787711641
H         -10.30050854390551  -10.28726377961701   -2.65067701917246
H          -8.53148308619742  -10.07337905388858   -2.57632237904208
H         -16.48175139326939  -11.81130025326850    2.72888952479302
H         -15.19775360413414  -13.01309881873930    2.96088769398277
H         -15.13188223273776  -10.72484927995652    0.91822028037268
H         -15.41678485997337  -12.43134884178733    0.54095195166641
H         -13.84370998478934  -11.90492382328930    1.16197129319020
H         -10.29102100988481   -9.68898469196214   -5.05452249645014
H          -9.18234553808661  -11.03589741258525   -4.77494855971504
H          -8.54829420057692   -9.39952382797540   -5.00066235594069
H          -3.77001621492876    0.21365636506769    9.63986599487361
H          -3.94175586896162   -0.43001646534754   11.27823290948797
H          -5.15807941931292    0.67611404241489   10.62835215183182
H         -14.34955311143535   -7.80927990747300   16.41955139527126
H         -15.60106924513029   -8.96843865406404    9.48248254627844
H         -13.56900535060657   -5.78903392374360   15.64810810925824
H         -16.49612474687624  -10.89843930353458   10.15268216438308
H         -16.97458049614357   -8.59730204730463   21.02559344181643
H          -8.95475530163190   -6.02989960980738   17.26345566494015
H          -8.75548637018826   -4.41874247309235   16.52772604959107
H         -21.64535161524513   -8.78462181184164   12.57466578079715
H         -21.23196556553030  -10.21773434776253   13.54683499203027
H         -23.60323159649797  -11.03362849616110   16.09361427991331
H         -23.98075248469900  -10.98270147617728   17.84589488648995
H         -22.52983964817594  -13.27679874366496   16.42708725297076
H         -24.22735946772663  -13.30128970239070   16.93138942751826
H         -22.94616113462379  -13.21335268976227   18.14645646568244
H         -23.91572685873653   -9.74934740187727   12.13827148618019
H         -23.63174103973219   -9.56236690624333   13.87229161679762
H         -23.50642956559337  -11.15926201139164   13.11745598908473
H          -6.53375125431107   -6.50165037976718   16.86999259057596
H          -6.72455971664872   -5.03903529171682   17.84610143022113
H          -6.33726857474883   -4.91293301690257   16.12578113146253
