254
 SCF done       -456.400672003672          0.000419854244
C          -0.46394682568709   10.89238427453610    5.37297605859047
C          -1.56701996714230   10.98983274601726    4.50730927513998
C          -1.44705291399462   10.59544748200555    3.15505544293269
C          -0.27034800124734   10.09511402403558    2.60046260506219
C           0.84107273846274   10.01629414108456    3.46385770689305
C           0.72046323383541   10.42664029389795    4.81500661962419
C          -2.87726692693867   11.46850319064732    4.80476364216197
C          -3.71146963996163   11.40801752149194    3.74808704722042
S          -2.96716086760700   10.78300828217019    2.31770133273841
C           2.15370627242334    9.57089633724261    3.17068449656098
C           3.00039945669824    9.60993684302816    4.23942950773127
S           2.21767842391742   10.22242983597526    5.68121642437922
C          -0.56999938526299   11.23506057308669    6.77843304548083
C          -0.21502838046123    9.68323084973144    1.21301997344288
C          -1.55668659124249   10.89511712927565    7.65938102931593
C          -1.32997644889262   11.37917340489905    8.96377107416070
C          -0.18075942781421   12.09777673565934    9.08185770269204
S           0.66027391520307   12.17923952219902    7.56875157657246
C          -0.82694333647174   10.27206995880197    0.14003763671028
C          -0.59557003819009    9.60088718388024   -1.07511450998781
C           0.17668529891566    8.48786860354339   -0.94032334550442
S           0.65061794773697    8.25753630935691    0.70801664144713
C           0.40323526227517   12.72791114778452   10.29897065971947
C           1.60604028351949   11.93106119672927   10.80879817084818
C           0.68203028427031    7.57567181787087   -2.00443042182453
C           2.05269068007285    8.03971033315746   -2.50479347377517
C           4.36609976106269    9.21242338949138    4.27592407746176
C           5.24494037630160    9.36149316451067    5.32277256178352
C           6.50503047386164    8.84590076558127    5.02858695458034
C           6.63024829792350    8.27299697878883    3.76357125154171
S           5.10306686544785    8.41781294466367    2.92134963781378
C           7.78764128043955    7.64677440700658    3.22760451503310
S           9.26461955669486    7.66645714372437    4.16468692064777
C          10.12540906933158    6.74943778247392    2.97113568416570
C           9.30671463422266    6.40423747832016    1.91841982340579
C           7.99105066214922    6.94494739708002    2.03625270665064
C           9.69946688161798    5.43749474464771    0.88377992146382
C           8.72800711014469    5.32115924066025   -0.20317471387249
C           7.44466353903614    5.95413873528611   -0.14658155458079
C           7.00657063002411    6.76816579178464    0.98374881443793
C           8.92239571696432    4.60419302960978   -1.35508705279550
S           7.53825688708265    4.71863103570800   -2.39044634504516
C           6.68430978078260    5.71654519027257   -1.26623845238277
C          11.51746361364294    6.48880695860690    3.16216572313997
C          12.55708117022696    6.59680811357318    2.26358084789147
C          13.81567356986429    6.30423828379960    2.80718453612513
S          12.12665615835951    6.05260783609776    4.73223723368984
O          10.71640223696975    4.76883359553768    0.95976330343603
O           5.88993143185769    7.28075267570564    1.01396477963365
C          10.13376720768373    3.87139454864784   -1.80579202153049
C          11.08207945590886    4.81210203009176   -2.55581445652047
C           5.29576523426360    6.15196623297934   -1.56654273231477
C           4.27907416731684    5.25411515023462   -0.85520709073990
C          16.33346124252711    4.64391266851589    8.22189008825001
C          16.04507348974094    5.00557420049299    6.89101714488128
C          17.07916183167688    5.03885049398334    5.92423313773410
C          18.40671323920251    4.73493783114288    6.20831479090683
C          18.70224220820754    4.41616861205652    7.54943434764309
C          17.66501497607192    4.37562694103518    8.51487090319238
C          14.79053696244650    5.35898084634052    6.33674662304282
C          14.83618940045929    5.61790625562610    4.99841747579178
S          16.45546788066428    5.45828901690226    4.35025569996931
C          19.96106268458564    4.10808560501342    8.11897052563748
C          19.90228518692992    3.79537763762476    9.44619555273556
S          18.27010109499845    3.89305079895845   10.07530257186627
C          15.28405677451047    4.54762626738602    9.21652495440318
C          19.40215361145619    4.70422655287438    5.15674322138960
C          14.04262253967190    3.99076901724788    9.08925086549985
C          13.27043960710213    4.07740148871696   10.26460925566770
C          13.90941097730908    4.70847840371740   11.28710066130256
S          15.50429237911186    5.19638636434962   10.81722453447015
C          19.52178051287531    5.54137335656989    4.08220843953478
C          20.55106061339421    5.16955623212941    3.19625467517683
C          21.21036296357812    4.04032220876872    3.57412807491020
S          20.58162885514194    3.42469488233472    5.06525604458504
C          13.42446406458855    4.96147384443957   12.67271481658066
C          14.13402357916762    4.05547939374758   13.68095559726134
C          22.36379394026478    3.37144133564114    2.90960425728284
C          23.68123536076174    3.74686872912922    3.59128206212517
C          13.75955461441566    5.98260652742650    4.14052608478355
C          20.97695667725456    3.40821656522880   10.29512524604676
C          20.87778289121342    2.91238988912372   11.57426959082902
C          22.12108714137921    2.59201372981118   12.11386416028895
C          23.21165153544678    2.85978280901962   11.28691942312420
S          22.62932089630926    3.53782817579927    9.78267709174309
C          24.57776547500850    2.59213051116082   11.57591243258624
S          24.94912159969128    1.61006005916043   12.96762083420984
C          26.67026785250074    1.69332011015202   12.70403398361563
C          26.93695490162714    2.48683214288156   11.58668464405018
C          25.75759435046875    2.97526351308525   10.94072213781896
C          28.26837234910769    2.81582047493259   11.11426222916907
C          28.32421696352519    3.73561879723737    9.98529191212231
C          27.14547934793369    4.22539228692742    9.34316449905574
C          25.81037468434815    3.79646311167853    9.74419751166057
C          29.48189923638235    4.21885465719716    9.42589161871334
S          29.12332991866003    5.31184937734826    8.13398286211306
C          27.41626312622250    5.10210344260874    8.32224999570228
C          27.52628847807674    1.02030178906962   13.61683601836680
C          27.13870443854255    0.21802354801952   14.69104543256715
C          28.18334060401583   -0.30007458414304   15.45446388552127
S          29.27336060256015    1.10217891362998   13.57829726697585
O          29.29547172080729    2.38200504563226   11.63353334803428
O          24.81397567914753    4.10195608290416    9.09248371700473
C          30.89362147279327    3.95138801425489    9.80629339522156
C          31.30912705767138    4.78590539716359   11.02111810925882
C          26.47347989388723    5.79989255826828    7.41132384012352
C          26.09043934652968    4.89608766265880    6.23634185677597
C          34.35150305127229    0.23675467500709   15.69063423384622
C          33.00172732710926   -0.13792502253812   15.84266900709557
C          32.62632718784185   -1.06213138642675   16.84822302276971
C          33.53599540724458   -1.66515590853035   17.71104121315354
C          34.89335895058804   -1.33115198483308   17.52376391624275
C          35.26384697937171   -0.39174617840186   16.52825108160084
C          31.88913762098009    0.31103747690467   15.09451477619768
C          30.69622017838415   -0.19316806867996   15.52535609413176
S          30.89613724586644   -1.28793969962910   16.87883999236112
C          36.02051636392637   -1.81943913392370   18.22761929069885
C          37.20070188824204   -1.25814161800480   17.83369657231117
S          36.98038120118987   -0.09855199359736   16.53886207136298
C          34.73959697377007    1.24774195147970   14.72812389843052
C          33.08465341979368   -2.55452494404020   18.76135191895325
C          34.11763775297449    2.43381304189348   14.45469346155300
C          34.76931591324123    3.18749911450761   13.45894846752612
C          35.88013012858356    2.58003219182297   12.95979351586430
S          36.15496010654532    1.05381556769048   13.73351765425871
C          32.08055610179745   -3.48101542786006   18.70517234908016
C          31.84502095941006   -4.12471491770522   19.93496463320585
C          32.64943231487811   -3.68396231630639   20.94059318853299
S          33.74490156202047   -2.46978870971363   20.37165579787663
C          36.82991611188964    3.08068651677086   11.92694250005162
C          38.17107811785915    3.47080443340719   12.55117419992854
C          32.71081585090027   -4.15331658474639   22.35309421107681
C          33.86643030304634   -5.13633560981252   22.55195299881470
C          29.41273450039574    0.10246433501491   14.98938718023345
C          38.50088000854962   -1.50334821665313   18.35701844908276
C          39.65371715170355   -0.82298007539368   18.04013543475241
C          40.75436164544062   -1.28671434612991   18.75617195981554
C          40.49239555584811   -2.35009462162617   19.61890910166920
S          38.79711101723342   -2.76798752853271   19.50713598309430
C          41.41871824323742   -2.97319351580121   20.49952137318551
S          42.97409685634400   -2.22166035220650   20.72867454375738
C          43.50567385436685   -3.42044911760553   21.87624947885401
C          42.52179257006339   -4.39499401158659   22.02839215640664
C          41.34269701105001   -4.13825562336698   21.25907636598353
C          42.66235188183041   -5.58477805090976   22.85240994140218
C          41.60108283692878   -6.57432718617588   22.69674871979597
C          40.42506042035797   -6.31452047959939   21.92697196174601
C          40.19921027912675   -5.03354432771046   21.26691339492047
C          41.60136049108382   -7.82194643179237   23.27001817024829
S          40.17549588812593   -8.69727534673893   22.82916819079931
C          39.55634576150346   -7.37661831175857   21.89866155754212
C          44.80082788078789   -3.27086019801713   22.45330232357806
C          45.73696646982123   -2.28852326610650   22.14844580957196
C          46.92807900504395   -2.36086917639319   22.88642358334946
C          46.90605265585588   -3.39405003207116   23.76935963799120
S          45.45676515832885   -4.30063665862911   23.70706674487599
O          43.60931494160587   -5.77076602919733   23.61132707737528
O          39.11544551368093   -4.74922557120480   20.76233392481374
C          42.64247334498977   -8.46849254650066   24.11046348002230
C          43.77404461717006   -9.02686316489149   23.24244929998941
C          38.23034928726962   -7.48522114083750   21.23862139288608
C          37.13266129402729   -6.91343228065771   22.13983177693674
Cl          7.76474597519132    8.93028853252926    6.19089318341793
Cl         12.35819747550420    7.12788691289295    0.65282566662749
Cl         22.22626135153132    1.93439312797174   13.69611180078962
Cl         25.51338793658389   -0.14846048087858   15.10349869677447
Cl         42.29452662186583   -0.56326524298966   18.52814088053788
Cl         45.53349546209909   -1.05626355458379   20.97115584983876
H          -3.15995597052261   11.85443335857422    5.76677075098828
H          -4.74074680474305   11.70573046611759    3.70099610985842
H           2.48268154131166    9.23736569386655    2.20381945846319
H          -2.39748337796122   10.28011679893408    7.39131345236506
H          -1.99964609526514   11.19869587768975    9.78629117255544
H          -1.39425577726825   11.18225461091474    0.21034724934220
H          -0.99306262438461    9.93142351495011   -2.01846410547723
H          -0.36388121911719   12.77502838469221   11.07482498903797
H           0.72186083664037   13.74746738666803   10.06861928732645
H           1.30803228935622   10.91560853312061   11.05993237423931
H           2.02254030114094   12.40179368035624   11.69581568013237
H           2.37706593107738   11.88468125547388   10.04313024242832
H          -0.02717974192658    7.56582002791596   -2.83508239755849
H           0.76425805448906    6.56052038993011   -1.60998982843313
H           1.97905048020822    9.03730499087948   -2.93152729523824
H           2.42745708433421    7.36145208723940   -3.26745971926917
H           2.76234101937136    8.06909233164074   -1.68133204488018
H           4.99747728563570    9.82684164774347    6.25979719420338
H          14.72949861038637    6.33293064342632    2.24230092217397
H           9.84133719413282    3.04925806052110   -2.46215333680137
H          10.64742896601120    3.47066478580248   -0.93089277623823
H          10.58425174395859    5.25234249532651   -3.41774555716909
H          11.95471716591094    4.26273303871629   -2.89827423483212
H          11.41312229254286    5.61073420452411   -1.89683291074632
H           5.12921729851664    6.11628754576738   -2.64490268875390
H           5.16371152016836    7.17652728586354   -1.21360014626608
H           4.42486201378671    4.21313311488311   -1.13605950657728
H           3.27036206262577    5.55220096844384   -1.12527349934430
H           4.39076050519554    5.35193967600098    0.22099991431384
H          13.88390109777875    5.43975297932068    6.90867542600455
H          20.89015677192826    4.11522221444744    7.57908433019981
H          13.70834898661694    3.49517637140149    8.19521012740794
H          12.27147232891989    3.68646024897162   10.34545391425470
H          18.91469438377745    6.41802393468443    3.94676848097564
H          20.78757536798969    5.71776856378797    2.30145569993608
H          12.34796255516030    4.78119382976653   12.70727786994160
H          13.60610286738958    6.00524061387449   12.94086331184224
H          13.95589967405309    3.00984345616157   13.44034249198035
H          13.76762917416529    4.24932415106687   14.68592499845636
H          15.20616082087067    4.23697666373540   13.65885957752331
H          22.39248540885080    3.67511778097227    1.86091159051593
H          22.23450091331747    2.28758635611927    2.95075561339545
H          23.84035082914238    4.82125306684705    3.53285050393410
H          24.51531981859437    3.24446462443534    3.10813250138113
H          23.65856208025988    3.45602918122818    4.63881779593173
H          19.94950588321840    2.76935051506133   12.09745213367433
H          28.03563291554206   -0.93337332180205   16.31061228667867
H          31.54547263117276    4.18276233185085    8.96150614720139
H          30.99544691981180    2.89493460970461   10.06216622388263
H          31.17418705024231    5.84728634948392   10.82334251645360
H          32.35486816281664    4.60034531989742   11.25038519287772
H          30.71138089923822    4.50486215402048   11.88370801860110
H          26.93687035437455    6.71488162606821    7.03696277598563
H          25.56701689991884    6.05248710696405    7.96457922362870
H          26.97575140179130    4.58359518513436    5.68669280634591
H          25.42903545399830    5.43102755388593    5.56146927737606
H          25.57195326332348    4.01599124618934    6.60633255304592
H          31.95762331658458    0.97484684104167   14.25214954530471
H          35.97806678899489   -2.56441315710769   19.00094431838559
H          33.24445720310605    2.77619818135655   14.98050984403503
H          34.42304852713724    4.15048506554854   13.12667126587406
H          31.54913646717731   -3.72048051525598   17.80208764049459
H          31.09607118073393   -4.88485516115581   20.07062161350745
H          36.38679850041252    3.94742165214780   11.43172183538359
H          36.99812421995313    2.30536788557951   11.17525467555925
H          38.02956590701607    4.25419367484547   13.29229110925787
H          38.85290834629730    3.83355363223882   11.78607626027489
H          38.62103556008903    2.61013518394937   13.04058079520446
H          31.76613792138507   -4.64000574495309   22.60523502918020
H          32.84702366594021   -3.29924241071769   23.02019913604786
H          33.73698845568259   -6.00170752665513   21.90584982737704
H          33.90391107195575   -5.47478745732858   23.58422860106162
H          34.81216138410523   -4.65900941902729   22.30679065532895
H          39.70371758002054   -0.01437414205723   17.33334557208440
H          47.74001192986663   -1.66980299949517   22.75367840165254
H          47.68099812631353   -3.67890506699175   24.45306306830478
H          42.19117236508671   -9.27638208607593   24.68967879357902
H          43.05914579396272   -7.72400402313307   24.79118954781291
H          43.38559935872148   -9.73723607633053   22.51542668733278
H          44.50451209479686   -9.53089291520223   23.86900160829342
H          44.27108441825758   -8.21655353740837   22.71604263147704
H          38.01696948667590   -8.53284296450187   21.01703370769684
H          38.24853179241161   -6.91420612376987   20.30846584109874
H          37.11412316970709   -7.42903375932552   23.09760608471927
H          36.16527472014447   -7.02907459541158   21.66037214331597
H          37.31316351667406   -5.85550546647555   22.30861622063435
