209
 SCF done       -388.399127039208          0.000799998980
C          -6.70219979006835  -11.33192559495383   22.48555000488899
C          -7.62085406147062  -12.25855537038418   22.87160835116721
S          -7.86774638629733  -13.47109740966880   21.68390716651884
C          -6.70644565853524  -12.71752981987792   20.62665624623366
C          -6.17894956087693  -11.58888263732671   21.20780978612952
C          -6.43051499221656  -13.30302681404659   19.34512321080262
C          -5.54909990049485  -12.79945884368617   18.39930884263949
C          -5.30997033061335  -13.40934325948063   17.15932301709178
C          -5.92361933597728  -14.57903980626271   16.72827063933581
C          -6.83501144917252  -15.11723164111819   17.67211247964718
C          -7.06982757778190  -14.49614984469043   18.93287691597438
F          -4.86166091100448  -11.66555864180023   18.64172734281684
F          -4.41940818415247  -12.79345514579824   16.35383798617046
N          -7.60114415494098  -16.21681223624038   17.62840904797477
N          -8.22418368477810  -16.22812031023981   18.77384478154787
N          -7.96128375739576  -15.24728444734355   19.58957528460515
C          -9.17792480314929  -17.24714392240372   19.10703708133309
C         -10.59556935346713  -16.68973950127311   19.03531896735531
C          -5.66945010975711  -15.20871363412172   15.47014486381525
C          -6.27042403945263  -16.35084079148119   14.97886576459557
C          -5.79264573787374  -16.73137336432930   13.73038889940007
C          -4.81415306647934  -15.89174943150856   13.22785214840573
S          -4.49462689069220  -14.59962236434053   14.34217084735553
C          -4.12466629533264  -16.06356033902923   11.99608596320352
S          -4.47214191908138  -17.49556716728531   11.06563472489272
C          -3.30358693795680  -17.05849422461923    9.85393154963997
C          -2.71508621915066  -15.85406525469143   10.17309816113455
C          -3.16699491271351  -15.28120653294594   11.36721477670116
C          -2.60902993249159  -13.99218549827603   11.88063694540390
C          -1.42267407884537  -14.24411646343103   12.81327267050464
C          -3.01692197119851  -17.90587250677325    8.73613349106150
C          -3.72318406781265  -19.06766661885780    8.44117930684605
C          -3.42602854145644  -19.93913451879524    7.40105596571250
C          -2.35929325396924  -19.73207079965227    6.54053126843025
C          -1.60920363985249  -18.54434214829901    6.76304835711070
C          -1.94100428728791  -17.64303977207194    7.84078668628174
F          -4.77719192336842  -19.40734903072212    9.21513306709350
N          -0.56464165814730  -18.11295189579016    6.06153099297752
S          -0.04807083172481  -16.72216973725519    6.68276514632962
N          -1.12000274373621  -16.59662544248220    7.87465176259003
C          -2.01779232385996  -20.67185749344033    5.51825442983846
C          -0.91941512663387  -20.67363311334797    4.68843829595792
C          -0.83868873772999  -21.77988132423517    3.83433816022561
C          -1.90935857086503  -22.64924217957821    3.99846638481601
S          -3.00731031534466  -22.07297067298127    5.22328729987465
C           0.26629516844901  -22.01817757067649    2.85289886590416
C           1.25675840324952  -20.86571169232290    2.74344017141618
C          -3.36355417074123  -24.61642812401680    3.48226752878189
C          -2.19747403807475  -23.88393685618565    3.35786382871714
S          -1.06267600468662  -24.71484873934346    2.33243406725230
C          -2.16831865532360  -26.03653181432039    2.09810927246296
C          -3.35109732272752  -25.81388622120647    2.77465031580081
C          -1.75199052071107  -27.16619659014051    1.32682637059038
C          -2.52410741195634  -28.28383470314371    1.03377510621828
C          -2.03690445953728  -29.39965539048032    0.34137357868207
C          -0.73057228868555  -29.53135648734736   -0.11874670199694
C           0.07198529691204  -28.38809776002778    0.12866816312124
C          -0.43373722445214  -27.24940238131665    0.81784935361928
F          -3.81071140690765  -28.34379595708305    1.43120895574663
F          -2.90994753789346  -30.41013244257010    0.14698642879626
N           1.34787197965232  -28.12021924989585   -0.18541606871958
N           1.55680071172290  -26.92097901162690    0.28234467991834
N           0.55299264776928  -26.34951643651999    0.88697186876123
C           2.82953963930285  -26.26912800488746    0.16079215177678
C           3.47769979471116  -26.11201561810774    1.53168428090161
C          -0.20734215601410  -30.70776870896696   -0.73741035515991
C           1.11172483011223  -30.94416783514663   -1.07507101257092
C           1.32915681063472  -32.21499847823348   -1.59200254439954
C           0.18154993813479  -32.98362402747782   -1.67988447542864
S          -1.19362781184251  -32.09319282262877   -1.10338565419962
C           0.11004304391811  -34.33226133739331   -2.11866476331320
S           1.59817127331643  -35.20599898792432   -2.34036550600275
C           0.73847582447049  -36.65072339513510   -2.78298228357268
C          -0.62280867910886  -36.42658152302415   -2.76598971814286
C          -0.99382762545943  -35.13340649439456   -2.38666063336898
C          -2.40621371147419  -34.65061831491565   -2.27542473508758
C          -3.44346548315154  -35.64717395388943   -2.77737940679309
C           1.41202690433618  -37.88278970520584   -3.06046364241138
C           2.78192184543893  -38.07123477435405   -2.90262158382144
C           3.44525926179374  -39.27929337005094   -3.07446306831447
C           2.78889377151314  -40.44024071277488   -3.45274954612563
C           1.39264650804915  -40.30939298591353   -3.69002617061580
C           0.71655874583851  -39.05042887286113   -3.48664273940845
F           3.54813736587559  -37.02334429977169   -2.52814949287460
N           0.55453167140138  -41.26232467631191   -4.08898451200075
S          -0.92794342983674  -40.64877657140111   -4.20325316086849
N          -0.58460347888124  -39.14576720856466   -3.74918768879730
C           3.46690534418625  -41.69468903196007   -3.55768862984971
C           2.97204653001131  -42.90477908226959   -3.98861496206652
C           3.88441328524274  -43.96396700967960   -3.91770946387300
C           5.11557279234579  -43.56425647503443   -3.41238378640604
S           5.12558003136995  -41.85804275754784   -3.05540369594395
C           3.58595867965444  -45.37213776016365   -4.32812928614473
C           2.19774151231868  -45.56327204593585   -4.92587105629472
C           7.47038222013034  -43.83425923596694   -2.61699819607493
C           6.28173968400232  -44.32280931561591   -3.12866635556539
S           6.37348702054675  -46.04847760350408   -3.33694019952164
C           7.99750760890233  -46.08664105439482   -2.71672946713835
C           8.42781920288236  -44.81647206465137   -2.38775041108488
C           8.66622078818232  -47.34416408873513   -2.59447899247954
C           9.94354657793374  -47.54512148554420   -2.08557921189629
C          10.53339531128047  -48.80888031111016   -1.95678821442494
C           9.92378679766320  -50.00438801179097   -2.32423120999879
C           8.62429939307514  -49.83117563425816   -2.86653759477532
C           8.02655460336070  -48.54457593630533   -2.98616245738776
F          10.68379846044363  -46.49665415147678   -1.67382917789466
F          11.77648416193372  -48.83655162673558   -1.43233115631719
N           7.73383034038907  -50.72034655021164   -3.33072081007893
N           6.70554142044480  -50.00119009297026   -3.68619127157488
N           6.80806508612581  -48.71360035072450   -3.51002827376497
C           5.52330363438230  -50.58964105907911   -4.24918203520809
C           5.25919762113046  -50.02260968277835   -5.63861854940549
C          10.51528207194147  -51.29439427105936   -2.16254682158427
C           9.96867529430599  -52.50830767373049   -2.53177777360607
C          10.77810695376073  -53.59415820693696   -2.22178779061017
C          11.96886133356886  -53.24574981258235   -1.60798423674053
S          12.07147773418652  -51.52319585555077   -1.41986491735880
C          12.97337559759516  -54.15208670898037   -1.17086189588581
S          12.66467427432440  -55.85713503043829   -1.35952744495232
C          14.20111401140196  -56.26960704753901   -0.65774859779230
C          14.88953118712203  -55.12631884218458   -0.31480918127372
C          14.21733838176829  -53.93189046307471   -0.59736321087153
C          14.80509681635194  -52.59973508328599   -0.25631992680132
C          14.33426331889055  -52.13184164879384    1.12217114563552
C          14.62088959441111  -57.62892059567123   -0.48958509735660
C          13.87209777190455  -58.72837367627476   -0.89274455688426
C          14.25610066215699  -60.05657370042031   -0.73835789444188
C          15.45452154537409  -60.41854718483496   -0.14935248678309
C          16.27529618500711  -59.34385524015225    0.28846973384520
C          15.86237763561189  -57.97110379810972    0.11919582516023
F          12.67433543122921  -58.52547827895187   -1.48398802456162
N          17.46472783963273  -59.43266435670753    0.87906506260727
S          18.01115482593119  -57.95446748118741    1.19257506548298
N          16.77097589821417  -57.12407999725681    0.59650450797074
C          15.84168393296199  -61.79123713594709    0.00963895555464
C          16.97502658222467  -62.30372022063992    0.58656395141117
C          17.03101192203237  -63.71383713603009    0.57713452731685
C          15.93147934053322  -64.26051454117247   -0.01521297559532
S          14.81341792972327  -63.08097080452802   -0.56302412049949
C          18.18451164047413  -64.49942471318883    1.11649346986832
C          19.37989232546747  -64.42848553950729    0.16538494256616
H          -6.40680314906987  -10.49361791381474   23.09080346310794
H          -8.16973276270287  -12.30171652195541   23.79150047586407
H          -5.44182483881383  -10.96492941203764   20.73884129426278
H          -8.96224497507700  -17.59385241395255   20.12040275643613
H          -9.03764863351203  -18.06137625659085   18.39447689118163
H         -10.69725810677426  -15.85386606032261   19.72275374850439
H         -11.30977756029537  -17.46097660482957   19.30828572603887
H         -10.81784121548060  -16.34697703754260   18.02769816385074
H          -7.02662485484490  -16.87772094943660   15.52983796437230
H          -6.13884324268304  -17.59662834081783   13.19301085374704
H          -1.96699749911768  -15.40391063763338    9.54721505313008
H          -3.37669336982434  -13.42747577806058   12.41200457377172
H          -2.27474715926302  -13.39489764853863   11.02998766238693
H          -1.72906122444795  -14.83949655102724   13.66954036875540
H          -1.02468987873742  -13.30038600652913   13.17640516069824
H          -0.63553975322202  -14.77744294301605   12.28478241045947
H          -4.04722261882155  -20.81448111423296    7.28641138507581
H          -0.19776215239169  -19.88036848177273    4.72572552341337
H          -0.17334643182032  -22.21317423721939    1.86984366552697
H           0.80060628007807  -22.92909844173628    3.14223559834097
H           0.74932295773873  -19.94747906910656    2.45807061414990
H           2.00245443444484  -21.09507782171530    1.98567372423160
H           1.76951328293464  -20.70331974060907    3.68820641203645
H          -4.19597111368561  -24.28025808429187    4.07512274122335
H          -4.17638548570684  -26.50090110443073    2.76548760804435
H           2.66840009427671  -25.28688296780718   -0.29124639634864
H           3.44004195522228  -26.88605444811050   -0.50015236887025
H           2.82105051337457  -25.54232554907738    2.18415449897349
H           4.42406780762075  -25.58803111604495    1.43544846451822
H           3.66043256356046  -27.08561996244422    1.97979894673354
H           1.87638523404051  -30.20404648661688   -0.93172964568127
H           2.29202352380987  -32.58427964491401   -1.89807543429868
H          -1.31569103717667  -37.20544172908060   -3.01864381000050
H          -2.50382279177685  -33.71523968608177   -2.83542764819345
H          -2.61452332047784  -34.41089056976782   -1.22740016739683
H          -3.25935263385552  -35.90405376599689   -3.81789230510224
H          -4.43578990568313  -35.20900837992749   -2.70163915924957
H          -3.42676167921196  -36.55742493155397   -2.18318093325444
H           4.50869062923151  -39.29900476834050   -2.89007940781895
H           1.96148815584627  -42.99504133727757   -4.33790957733040
H           3.69736572080587  -46.02333875703133   -3.45499718074566
H           4.34036577742782  -45.69152799259196   -5.05428446655446
H           1.42641170944919  -45.31064453011255   -4.20269999859728
H           2.06517934057190  -46.60262497545740   -5.21770874646770
H           2.06833592146437  -44.94104603837135   -5.80803304830424
H           7.62478634969359  -42.78926714892251   -2.41304584657480
H           9.40256885482241  -44.60694736249617   -1.98877320073248
H           4.67943996239209  -50.36677090621637   -3.58959067801517
H           5.69021695689438  -51.66737015540213   -4.27822935107884
H           5.16509587077605  -48.94142994682788   -5.57903513644174
H           4.33950753323904  -50.43867576727159   -6.03924768810223
H           6.07683030270311  -50.26737420199447   -6.31206009793140
H           9.00863577285775  -52.57830432402478   -3.00768626491203
H          10.51788486934090  -54.61660122034975   -2.43194266596692
H          15.86543221064153  -55.16383157187590    0.13257120117770
H          14.52993979165353  -51.85656698268903   -1.00643441826638
H          15.89299105332330  -52.69098958538926   -0.25092609258281
H          13.25183999210605  -52.03484566902712    1.14435478206706
H          14.77041129789396  -51.16499821578546    1.35862574990963
H          14.63317019124257  -52.84769666657517    1.88475737847277
H          13.57939712147100  -60.81746513057131   -1.09674241800147
H          17.73813714348041  -61.67591603199786    1.00754559632085
H          15.70726805941090  -65.29918315424740   -0.16013284019632
H          17.88647953630266  -65.54050786594932    1.25343310335436
H          18.47208414025028  -64.09340266319541    2.08881292164032
H          19.11691923468979  -64.84628863543247   -0.80392096192812
H          20.21902680501790  -64.98990339162133    0.56913286518005
H          19.68888630290112  -63.39594145588777    0.02137823102729
