155
 SCF done       -287.242113249884          0.000664022243
C          -3.28739104191403   -7.04190521766468  -17.69937568718319
C          -2.35747081997362   -6.19361237584829  -17.17044056515442
S          -1.59568365822096   -6.82054908580370  -15.77282824031968
C          -2.53597517318138   -8.28684015103094  -15.87739044386037
C          -3.38361094236665   -8.23547180378666  -16.95855515596896
C          -4.08276191742881   -6.76973406722234  -18.93737565652532
C          -2.38646010761998   -9.35659281144712  -14.93180615587663
C          -1.51639649108888   -9.31423470547432  -13.85188542103538
C          -1.35846925792581  -10.35789915428165  -12.93217064210216
C          -2.05050895841383  -11.56008010725730  -12.99399208682608
C          -2.96259158615681  -11.64674477248860  -14.08545922404751
C          -3.12685252662508  -10.56887116726102  -15.03104350781365
N          -3.75108245682752  -12.67805854245475  -14.37385788683769
S          -4.61020621080893  -12.33975084390689  -15.68945148112945
N          -4.02764501762280  -10.86828542958113  -15.96363828288748
C          -1.86857454204984  -12.62801632662130  -12.05912195882722
S          -0.76233790873555  -12.51009808885132  -10.72223618960189
C          -1.15249835757620  -14.12176170811954  -10.19617476231454
C          -2.09968050656118  -14.71108381586887  -11.02665855715988
C          -2.49036101792127  -13.85955980133781  -12.06326423518013
C          -0.49544782194523  -14.62981266860780   -9.04480515607792
C           0.39674251875100  -13.94404169990788   -8.24250791068825
C           0.89472480725811  -14.69611712068962   -7.18255606216826
C           0.40196192233680  -15.98346737146007   -7.14507071487428
S          -0.71095244831858  -16.25650654150289   -8.45535993285894
C           0.69807418460261  -17.01418838054492   -6.21746531275532
S           1.75216791432850  -16.72351584449781   -4.86350241659458
C           0.73880901529460  -19.06916410535942   -5.15046667213168
C           0.24676281501230  -18.31686489049482   -6.21329902074078
F          -0.75891659121394   -8.22144655290812  -13.64227666669989
F          -0.46863437413260  -10.14943801570847  -11.94292611724693
C          -2.62999066496073  -16.09571659243538  -10.81970561411842
C          -3.53363250573302   -7.56633803876621  -20.12170392800117
C          -3.70627938120404  -16.50449614877465  -11.81731540749013
C           2.95413313264403  -18.25551962551845   -2.15098842453723
C           2.20896718516644  -18.88010311813669   -3.14135749839571
S           2.04678584998064  -20.58508759488638   -2.82113517077373
C           2.97301721840836  -20.45372341040311   -1.35460483954868
C           3.37174263249562  -19.14858654291739   -1.15900105686059
C           3.32802774540656  -16.80792409996303   -2.11341473913567
C           3.23018438053551  -21.58223619087813   -0.51402663886118
C           2.84454796517994  -22.87953745177725   -0.83055779405573
C           3.07803304024050  -23.98639659924843   -0.01025344112099
C           3.71064143165844  -23.91856930635075    1.22578882846421
C           4.13108130215173  -22.60699218616459    1.59024680562794
C           3.90243588017251  -21.46602063511942    0.73648823822600
N           4.76766163920709  -22.26535205670898    2.70664931787755
S           5.05255982488836  -20.68296495814528    2.69452699036430
N           4.38264077184383  -20.34768087130825    1.27222970683807
C           3.92009693879218  -25.05410059410619    2.06935512176932
S           3.49205467330715  -26.66477687720366    1.57266693416693
C           4.03649089838029  -27.32719114135141    3.08610070628751
C           4.52084611871326  -26.33343633160097    3.92990966353382
C           4.45260371676729  -25.06754672732182    3.34250378989187
C           3.92875379530743  -28.72960774562756    3.27758454512972
C           3.52055859270250  -29.65007217083331    2.33098688488954
C           3.49662368015093  -30.96163854871837    2.79437944886490
C           3.87858558124157  -31.08410737019707    4.11388360967105
S           4.28832004626108  -29.53091757431286    4.78449996873197
C           3.94219691121454  -32.26471967937586    4.89704226833605
S           3.61438036247202  -33.81665166562053    4.18161006749626
C           4.18145767054520  -33.71522212035347    6.68692109351061
C           4.23266782360729  -32.39765879035788    6.23800626378507
C           1.57343552068959  -18.36498908931309   -4.30389572455994
F           2.20425474204924  -23.12161265923655   -1.99054615397747
F           2.64090532435709  -25.17366457871277   -0.47254771575213
C           5.05345676610385  -26.60724818548601    5.30203652893410
C           4.60888130600817  -16.55411795391974   -2.91075528642786
C           5.59680922773695  -25.37486615884876    6.01385283414428
C           3.58825971876720  -37.05651358653095    4.94276258377350
C           3.72352893063708  -36.03539360647916    5.87233537836624
S           3.71373485225852  -36.66251669110924    7.49817567439656
C           3.51823373078320  -38.29416030082469    6.92523767981519
C           3.47726163902028  -38.31240066317287    5.54760541360100
C           3.52766621208570  -36.89703410702614    3.45682273376021
C           3.40295490436146  -39.40961962292096    7.81359227686967
C           3.39382535512344  -39.29478210825066    9.19859175698383
C           3.24571468119899  -40.37659408440408   10.07157054419725
C           3.09887525544092  -41.69538311744684    9.65754274426573
C           3.12451396603186  -41.86490678193758    8.24294535595887
C           3.26913942000508  -40.74721523465448    7.34170989933198
N           3.01772466439547  -43.01547697733233    7.58472201750078
S           3.09162175415017  -42.73445510590488    6.00368793612664
N           3.26130852442654  -41.13748926117968    6.07043572045435
C           2.92406737057756  -42.79413301483371   10.55615864268879
S           2.80851766939554  -42.57662658872562   12.27869995624286
C           2.59612067844279  -44.28511602392698   12.52776530330637
C           2.62415100977811  -44.98052632835551   11.32414960423416
C           2.80715354962983  -44.12973452597238   10.23097481773602
C           2.42031660496950  -44.75315318617411   13.85766503434233
C           2.39503634690221  -43.97854592754886   15.00010405596222
C           2.19589379870251  -44.70755621873513   16.17128070198001
C           2.06399045389052  -46.06073888175010   15.95795539654536
S           2.19169586705723  -46.43401665192643   14.26392346594892
C           1.84695497547277  -47.08972508903378   16.91781121682598
S           1.70199992911181  -46.71343718662840   18.61337742613033
C           1.47457954362754  -48.37321432684753   18.99609984342307
C           1.50713590072633  -49.16589505008961   17.89245790895162
C           1.71905255703188  -48.43983398066897   16.70707831712247
C           3.86423283820101  -34.63064551962754    5.70236106336013
F           3.52355308399526  -38.08103935588703    9.76757568991348
F           3.24573463759877  -40.08687889378592   11.38695084132586
C           2.47178338953517  -46.46663345008244   11.22535685522587
C           2.08604225222185  -36.68611383178205    2.99013980976822
C           2.54228617879796  -47.00446825179654    9.80171829663649
H          -2.07852540489801   -5.22133461071787  -17.52714813999799
H          -4.05518309845224   -9.03741699320352  -17.20047748855730
H          -4.04882399412446   -5.70313250006219  -19.16657837272779
H          -5.12391745296941   -7.05125668627321  -18.76493112026736
H          -3.21034752081401  -14.11351314169396  -12.81650491136220
H           0.66941882743483  -12.92128293003083   -8.43380444402105
H           1.59775335487195  -14.32702153018443   -6.45685077572487
H           0.49699213163586  -20.10434591191999   -4.98617150351316
H          -0.41838588195619  -18.69833485842484   -6.96770449119581
H          -3.03367863929793  -16.16885164829583   -9.80459988787177
H          -1.79640064262628  -16.80343226897271  -10.87864139884880
H          -2.50209723160773   -7.28464652210705  -20.32104191972181
H          -4.12443780657472   -7.37397062326985  -21.01407862915901
H          -3.56288673315675   -8.63208882012792  -19.90789749057105
H          -4.55882715783840  -15.83207099278220  -11.76203763753362
H          -4.04907179158854  -17.51155744515653  -11.59160032175666
H          -3.31706285413490  -16.49553146044213  -12.83230807724785
H           3.95391616878428  -18.85519518526089   -0.30534570611976
H           3.48969556889780  -16.51760799174867   -1.07356688979081
H           2.51944667543158  -16.19529305639754   -2.51587976833544
H           4.77679135053610  -24.16146003320940    3.81608550677838
H           3.25049414037560  -29.36119350453689    1.33071711077809
H           3.20587620127109  -31.80841436841499    2.19811610102292
H           4.37283673442592  -34.01049574879041    7.70344425656553
H           4.46693782691893  -31.55421378734048    6.86314660662714
H           5.84563864517683  -27.35931338640884    5.22730306871431
H           4.25504472020516  -27.05041204231610    5.90647089932972
H           5.42919950560762  -17.13750747179704   -2.49889489096666
H           4.87450643539690  -15.50096224672143   -2.87023455477844
H           4.47355701400273  -16.83628416148933   -3.95187580876470
H           6.40565351602192  -24.92517903391921    5.44326973449609
H           5.98227880296289  -25.65766372164135    6.99058964880238
H           4.81416566920951  -24.63407117348358    6.15708653183597
H           3.36732678453661  -39.22679274136771    4.99503626396315
H           3.92431090219235  -37.80310771109311    2.99453623431534
H           4.14305634015004  -36.05457278908818    3.13731874658170
H           2.85540114503588  -44.45690348133341    9.21080351835399
H           2.51770472638577  -42.91029545997173   14.97171866444743
H           2.14685544716764  -44.27061273829877   17.15300081639340
H           1.32965130076103  -48.65823292053161   20.01895736110679
H           1.38378477481809  -50.23363377987343   17.92424611374676
H           1.77723526073549  -48.88238620773521   15.72848380638888
H           1.51313880445155  -46.75176390209349   11.67107197708835
H           3.25284057961013  -46.94064428834231   11.82885954506182
H           1.46998139014352  -37.53421701418483    3.28004820707877
H           2.05198352705275  -36.58315452567152    1.90861442784374
H           1.66770620005482  -35.78721594236865    3.43611150702834
H           1.74977223927002  -46.58192575786543    9.18907515433569
H           2.42579333956420  -48.08565177852214    9.81387810104552
H           3.50120732645906  -46.76893500972569    9.34676429647877
