314
 SCF done       -560.380268450318          0.000995172376
C           3.88215911975703    6.37889577578200  -12.71717717378870
C           3.01419555707081    5.51888361725636  -12.02058382325822
C           3.05919041752908    5.45155267787135  -10.60958130754782
C           3.93839352475584    6.20290736082229   -9.83342224639833
C           4.84045084784163    7.02577062223993  -10.53460913280392
C           4.79494329386124    7.09112492815467  -11.94867096213777
C           2.02939935156043    4.63841108636084  -12.55877557989447
C           1.34658709757286    3.96913568403223  -11.60889382601075
S           1.85444059509853    4.34670081150481   -9.99909194507241
C           5.86432634427363    7.84908686832768  -10.00510938560474
C           6.55727198878990    8.54394838099666  -10.95162307476158
S           5.98380281580773    8.20382945062513  -12.57176794419007
C           3.79842135313210    6.52734558900546  -14.15740307049581
C           3.90031286382939    6.14799517771211   -8.38661375773129
C           2.67682611311950    6.66627252622569  -14.92450741259096
C           2.95529393344514    6.80491131545382  -16.29921360509209
C           4.28393972076117    6.76265414896544  -16.58866373575110
S           5.22843434173313    6.56301654377396  -15.14897155114924
C           3.69999536893808    5.05871188120159   -7.58543565546250
C           3.67823387898666    5.37123642288672   -6.21222620608853
C           3.84176941182221    6.69734887087367   -5.95377953393967
S           4.05076374540948    7.59196438316729   -7.42143102797287
C           4.95234460511989    6.90927378029384  -17.91201927492024
C           5.62592006541685    8.27715513125166  -18.04053932001114
C           3.91252364333695    7.38846688857027   -4.63609473629986
C           5.35036058100975    7.78910431037205   -4.29857560632303
C           7.62404547311764    9.46240817829883  -10.74098740688708
S           8.16220605734660    9.83828545504109   -9.13622630124195
C           9.34207448140597   10.96091735287961   -9.74853911684824
C           9.30989837960209   10.99979550190561  -11.12515430240022
C           8.34732292336928   10.15908655252729  -11.68342001111793
C          10.18191482059209   11.72925302783805   -8.87183709574571
C          10.48635561466118   11.33189171050344   -7.57786264860979
C          11.27978227284598   12.09248681386674   -6.71639664340885
C          11.85154319972728   13.29812776859060   -7.09201778557042
C          11.62121346335886   13.70342415553741   -8.43896196394600
C          10.72755256915302   12.98094654774786   -9.28305078614939
N          12.32527928189514   14.70837952144447   -8.96887134211487
C          12.06754452371505   15.14053844932644  -10.18031808482952
C          10.88477070828145   14.66680844630801  -10.84368898912343
N          10.32633672575166   13.55742144329764  -10.42087100495486
F          10.00324428148564   10.16999026389132   -7.09944493705151
F          11.47099924500717   11.61521639439837   -5.47262293189639
C          12.63298289982346   14.11203272398894   -6.20226682025030
C          10.23479799541931   15.37140813214496  -11.94531851182433
C          13.03858760147524   16.04642418423857  -10.78740737217714
C           9.48548971174314   14.66867417942109  -12.89078402590225
C           8.87976412526237   15.32489891628762  -13.93505455334655
C           8.96793304269851   16.71482827598680  -14.08751618940652
C           9.68829024243259   17.40535584265405  -13.10861897237583
C          10.30947711372397   16.75627659897296  -12.06175598085018
C          13.24757292271744   16.06841472641423  -12.16301227883930
C          14.17995144885615   16.92205139625143  -12.71541587661914
C          14.94527128141040   17.79203073720453  -11.93348470749723
C          14.73761306263750   17.73542454201741  -10.54893094247897
C          13.81923703947866   16.88215574574111   -9.98626203244126
S          13.49626268695371   13.44518213634796   -4.84783239794430
C          13.61129068048924   15.98529557564925   -5.25172080039601
C          12.80300330321199   15.47728303990899   -6.26774991917432
O          15.87091469521837   18.67928930791319  -12.34531773817582
C          16.15505999681914   18.85245860948384  -13.72719159843457
O           8.33640664377532   17.22132088890571  -15.16376752218578
C           8.37991748402787   18.61272253445497  -15.45075471343690
C           7.62233131327669   18.82538584266349  -16.75081601208824
C          14.08361938567665   15.01388606317829   -4.39706858929975
C          17.20055420826954   19.94995812275941  -13.83547655162922
F           9.80736202282421   18.75937843054974  -13.13849719950954
F          14.32324441077726   16.86996748385905  -14.06654826922785
C          17.07773272982236   14.03699625680478   -0.49893652429716
C          16.31284880559468   14.75059312089239   -1.44423543283111
C          16.28773652802769   16.16613560802546   -1.41536352290574
C          16.96219468158937   16.92657666100475   -0.46745572490234
C          17.67883475673265   16.20909838767576    0.51092711845114
C          17.72613434532265   14.79368362473226    0.46951532967087
C          15.51031312375674   14.23011061288893   -2.48911830141849
C          14.93370603879959   15.18934113868765   -3.26898176068707
S          15.34004418971971   16.80751879093683   -2.73030398881796
C          18.40621964653054   16.72639195478485    1.60724039887403
C          19.02867582924060   15.77141482074206    2.35735848314213
S          18.72585418946063   14.15686585960852    1.75017813560476
C          17.19228371315665   12.59446840347388   -0.56710787379740
C          16.93282378406859   18.37453848663983   -0.50435344395616
C          17.37117461206090   11.81523896444848   -1.67564384112172
C          17.45324520082454   10.43973895774601   -1.38269552009363
C          17.32661553756344   10.16030357716888   -0.05700386281336
S          17.11805371863127   11.61110980627327    0.86759618055211
C          15.87563153887089   19.18938570358064   -0.79905838314106
C          16.20251961780268   20.55927641573818   -0.77593683486076
C          17.50956229367385   20.80119583026957   -0.48431319394472
S          18.36738584587226   19.32119378021854   -0.21560635736443
C          17.39176114469978    8.83735925253045    0.62461425655460
C          18.71245093172528    8.66948783943029    1.37877005371204
C          18.20376813154155   22.11009900515199   -0.33085610506594
C          18.49860945765281   22.40979806569906    1.14064597343008
C          19.84326621754706   15.99233809850701    3.50234477675888
S          20.02773413690502   17.59469995961518    4.13300790195349
C          21.10621602552579   17.03284893736151    5.38216700433322
C          21.27797811994934   15.66727419217625    5.28889991166121
C          20.56766671368920   15.08280708328105    4.24149819055572
C          21.69597999049467   17.94896337687199    6.31745454878755
C          21.21711167514100   19.24250257955403    6.48603867039013
C          21.78450505709986   20.16778450090826    7.36010725845201
C          22.88259786822541   19.87416416015248    8.15734476673604
C          23.38758316857002   18.54601734519565    8.03557708064470
C          22.83690413189895   17.61377572904727    7.11055075185094
N          24.40226669905748   18.17881007331512    8.82788744752107
C          24.95360399111096   16.99470461076052    8.69475073669304
C          24.51858938135146   16.13537996368381    7.63595448089673
N          23.45959718522937   16.44182772614242    6.92547566949901
F          20.14609321066578   19.66633703376622    5.78842609644457
F          21.19151047455307   21.37484009360483    7.41007890690944
C          23.49000132481675   20.81991012187931    9.04583372213886
C          25.23593724333658   14.91481633190508    7.24994086139387
C          26.02267977147001   16.61148008336539    9.61568748671606
C          24.53819361725091   13.74969564934145    6.93690710527753
C          25.20906533837722   12.60509058001884    6.57497253646948
C          26.60603985568091   12.56214551901305    6.48951107094213
C          27.28565464400822   13.74773830625422    6.78217950755072
C          26.62272292138500   14.89973619201852    7.15411994024699
C          26.17017050701512   15.29356213788028   10.03747917353338
C          27.25473666830197   14.92328180142147   10.80417964301908
C          28.23989219400772   15.83863453140414   11.18342235503848
C          28.03167031074105   17.17378972094516   10.81532835456048
C          26.95134757610716   17.55596880531876   10.05498077848148
S          24.62325836240424   20.30934175039902   10.26316258938330
C          24.04628675203075   22.81908761426338   10.07630711721898
C          23.30234603910160   22.18694597684312    9.08492083044678
O          29.36985660510825   15.59043910133401   11.87623578475928
C          29.76522635117556   14.25678401066958   12.17146665178894
O          27.12832820181771   11.37389669981988    6.12876548228948
C          28.53452784141444   11.19372190146962    6.02744393318388
C          28.77382363823676    9.74453965649383    5.63799581950063
C          24.80109867305915   21.94616540237902   10.82873028132568
C          31.14249064540787   14.32748501938797   12.80980676235058
F          28.64130409830512   13.82500548440778    6.71419628912495
F          27.31946507780776   13.61637323681979   11.17447137293461
C          27.74748187029003   21.67917131508642   14.89198592618370
C          27.00670974249757   22.19557185404465   13.80781830012500
C          26.94584840598560   23.59675129113278   13.60338944218379
C          27.61459167644785   24.52606750392200   14.39093651834148
C          28.38346737286097   24.00539927667566   15.44931483465654
C          28.42412622882832   22.60833466015397   15.67703742452228
C          26.25053338087960   21.49179478730566   12.83670742871765
C          25.64195727893038   22.29945661787574   11.92083487454369
S          25.96625847246293   23.99601207215262   12.22165220845827
C          29.16129892165801   24.71852594837690   16.39090875285692
C          29.81322401555062   23.92237543446678   17.28571079206649
S          29.46489970364794   22.22480361595968   17.02649814087195
C          27.79166212878554   20.26758404858754   15.21574847714874
C          27.52250195911163   25.94560938337798   14.11444512974009
C          27.75318469527941   19.71119466125721   16.46461498136891
C          27.81174897704354   18.30481430009171   16.45339513175151
C          27.91067709221952   17.77705831917574   15.20356432140266
S          27.92248736386783   19.02439246769681   14.00212235500121
C          26.41497013827787   26.65666028251271   13.74507474780833
C          26.67476528148171   28.02382575223866   13.52828860584121
C          27.97974139311035   28.36408425156996   13.70972368176778
S          28.91991946370172   26.98485091977514   14.17003474376819
C          27.94913359509070   16.34496210605296   14.79999012325688
C          26.59622426418399   15.89496853077687   14.24262468661017
C          28.61341405069054   29.70895913026465   13.61984621498908
C          28.91643409765165   30.26806722487615   15.01204505224142
C          30.68329268978469   24.34877780231085   18.32786285240275
S          30.97993588825517   26.03965529791395   18.57425872707976
C          32.06761017954992   25.70308279703586   19.88906290333949
C          32.15858594672792   24.34624019808746   20.11048218838060
C          31.38136056112200   23.58526792032818   19.23681785086636
C          32.74906409314923   26.75556244800958   20.59154443118981
C          32.28757162078154   28.06290813858628   20.62130195940382
C          32.95432115295733   29.08995313464215   21.29469124552222
C          34.11675859142771   28.88317225809006   22.01891070790674
C          34.59184603307937   27.54023046796035   22.05888162076224
C          33.97362755122369   26.51558652675510   21.28218030133262
N          35.56747297830780   27.19395108647003   22.90515756239930
C          36.07530761711435   25.98494627115591   22.88468131026940
C          35.71514631864347   25.10422898799455   21.80840644935742
N          34.62652102724556   25.36001939140279   21.12229849719064
F          31.15181273221356   28.39292772609256   19.97853547075680
F          32.41842176508647   30.32174991932493   21.21389187174842
C          34.81374939415949   29.93985182410120   22.70634288144590
C          36.51780385458368   23.95771146113421   21.39124942552403
C          36.94998983719409   25.60697495339945   23.99145868561225
C          35.91683735580221   22.86028817434811   20.77177955147508
C          36.66786792978478   21.78054176956846   20.37397826549221
C          38.05710215544391   21.73864048622838   20.55099831101455
C          38.64488460169311   22.86148809711393   21.14053723832984
C          37.89995457711287   23.94686017485354   21.55320352127928
C          37.03837631464510   24.28946785518324   24.43057658449705
C          37.86691997106784   23.95646143693968   25.48234321562250
C          38.64595193806665   24.90953809843184   26.14461226950273
C          38.52131076304755   26.23397919194589   25.70482630197332
C          37.69151567902013   26.57919169252158   24.66562682908339
S          34.00500657159915   31.38558157400212   23.24028031951930
C          36.50987365744710   31.15310791720797   23.72021172201278
C          36.14552041987331   29.98098032239889   23.03819984323462
O          39.50270599318380   24.71640432451446   27.16558659386747
C          39.73812809835736   23.41573080606334   27.68815344539168
O          38.66304826697970   20.61534941048710   20.12095812142943
C          40.06739950433747   20.44370717991392   20.25747803429839
C          40.40575367266865   19.06825872585720   19.70700026850383
C          35.45805688699554   31.99667035085721   23.90674438859013
C          40.78525486211133   23.55537233767555   28.78062586699568
F          39.98874254664184   22.94176727006596   21.33114979469986
F          37.88395915692370   22.64742530586956   25.84941509684162
H           1.86744199154600    4.50773547611177  -13.61285187590544
H           0.56390012190983    3.24813809071772  -11.74229926579858
H           6.09875519221898    7.92354715553341   -8.95889515311604
H           1.68459904123048    6.70952391396988  -14.51149396149833
H           2.19250420041607    6.93114027008431  -17.04746109478755
H           3.60854083613582    4.05673717160942   -7.96388264242176
H           3.54227381791409    4.63380676022291   -5.44093955674958
H           4.20476180062856    6.79057882792072  -18.69929374869943
H           5.70541824070903    6.12672232435100  -18.03305435585162
H           4.89066539036792    9.07202425497395  -17.93713278853069
H           6.10738870377118    8.37141428817304  -19.01067162301264
H           6.37745385568484    8.39936105341873  -17.26392245791390
H           3.52606573947237    6.71762758631337   -3.86584082816107
H           3.28754076773873    8.28459445128609   -4.65577127154332
H           5.98950931276378    6.91003457082958   -4.26363954017986
H           5.38693865964837    8.28452604328013   -3.33173894296187
H           5.74022401476829    8.46882489365621   -5.05269278076460
H           9.98369442830342   11.60846730443454  -11.69750933634579
H           8.17401066567895   10.05199451309021  -12.73971066767351
H           9.39232897836988   13.59963586568843  -12.79453204216178
H           8.31223705540976   14.78469533923930  -14.67581626474122
H          10.83575469032293   17.35392437458745  -11.33404031628587
H          12.70441146920884   15.41209074922042  -12.82479317392161
H          15.33385087032650   18.39212300427494   -9.93579404699473
H          13.68855395539095   16.85152055583881   -8.91697644796589
H          13.85296630686912   17.02665092495869   -5.13191077785851
H          12.32853472625716   16.08080011918001   -7.01831243232926
H          15.24479114229763   19.13923584671932  -14.26689877007824
H          16.53881301231672   17.91838728754379  -14.15424699461886
H           9.41953616951437   18.94400334817206  -15.55760739599677
H           7.91036537396484   19.18098838297887  -14.63919122183145
H           8.09227563560696   18.26274432074682  -17.55268395064731
H           7.62291641951624   19.88041762833107  -17.00709137750941
H           6.59649665409233   18.48429604077749  -16.64366929180496
H          16.81754644648349   20.87286276299353  -13.40863874817127
H          17.45069732771008   20.11590005075427  -14.87905004308805
H          18.09811030411320   19.66423037692022  -13.29387320448138
H          15.34599788092486   13.18022266697452   -2.65150661123990
H          18.46927150732613   17.77117552735951    1.85071821164561
H          17.48420445262103   12.21852319059220   -2.66616801535944
H          17.59804134685653    9.68314904983288   -2.13365285906796
H          14.88310889122621   18.82243177933915   -0.98825970414651
H          15.48905345518533   21.34016651438642   -0.97174820212078
H          17.29203336771762    8.04981337552427   -0.12527135772997
H          16.56275991983681    8.74577148122882    1.33057088471208
H          19.55216562805764    8.74357827405496    0.69140096623165
H          18.74723401954748    7.69954483011690    1.86857196978858
H          18.81473492772268    9.44612996080421    2.13328619167798
H          17.56891556195529   22.89508019804979   -0.74740627020348
H          19.14364623215156   22.09701878821652   -0.88861570069149
H          17.57464777017291   22.43820507611228    1.71364637773406
H          18.99783994031788   23.37055741589839    1.23741776167212
H          19.14108486641122   21.63984500988412    1.56173996111649
H          21.90833588985942   15.12553780089795    5.96611770126766
H          20.57707744419898   14.03102588655928    4.01608020003885
H          23.46202131914121   13.74457725830344    7.00179514699089
H          24.67424897067970   11.69775220195704    6.34413074520684
H          27.20838323824879   15.78417359536366    7.35111812143284
H          25.44335404338435   14.53697919407556    9.78723003976859
H          28.76303118915400   17.89590543739392   11.14071545685847
H          26.82418276711666   18.58704974159934    9.76849651665516
H          24.03134491123183   23.87992657115938   10.25404095259075
H          22.66008300490572   22.72128372095544    8.41128588143991
H          29.80263003776620   13.66401254641398   11.25016247264574
H          29.05122549854967   13.79168716316528   12.86136093509690
H          29.01341452540368   11.41242067455395    6.98910370107532
H          28.94806986445860   11.86570002170924    5.26612096284260
H          28.35663385640978    9.08215519658790    6.39147290908434
H          29.84026254931480    9.56001048655438    5.55109423350306
H          28.29563753558062    9.53108721235245    4.68618040452848
H          31.84624424373865   14.79507378074135   12.12666955741556
H          31.48748767895310   13.32570698274374   13.04767040155437
H          31.10271842406397   14.91655652645638   13.72217925599153
H          26.14248681496121   20.42297547079874   12.80875633173618
H          29.24305128288842   25.78951090465231   16.41835097576728
H          27.64433003767204   20.28877734997812   17.36450367872483
H          27.78213213586497   17.70460928945912   17.34565917213247
H          25.43443734391869   26.22262976880544   13.66924766054490
H          25.91612136572556   28.73158547713015   13.24442398249160
H          28.20793711644656   15.73864640068909   15.67113626963674
H          28.71790244022200   16.20699266971290   14.03840035140119
H          25.82097157467780   16.00435124146609   14.99789171975586
H          26.63647242589975   14.85137161032061   13.93934869159980
H          26.32455870811618   16.49773237044246   13.37794942688175
H          27.93516877170237   30.38247315543814   13.09156530153865
H          29.54373669163862   29.64217828334639   13.05038855496062
H          28.00138748676816   30.34843628573115   15.59443241680889
H          29.36655354985024   31.25435060566968   14.93317859836825
H          29.60477308825981   29.61276582859882   15.54099129234230
H          32.75839836058339   23.93286343984846   20.89889029459974
H          31.32076098958451   22.51138903696705   19.25671906261912
H          34.85134846844554   22.86862770094224   20.61194429257672
H          36.20647051402897   20.92557044498550   19.90620652426801
H          38.42192868803455   24.78633452711226   21.98515294521401
H          36.45421350179866   23.50486649765033   23.97574866620172
H          39.10649995930844   26.97914293217888   26.21957392783107
H          37.60729249443653   27.60772490101882   24.35574845385850
H          37.50950060046559   31.36336977221150   24.05625449926825
H          36.83216382880209   29.19984122534712   22.77266612936063
H          40.10072084027470   22.75010880155342   26.89609890903379
H          38.81065191820247   23.00096355465550   28.10034606915537
H          40.35547331416599   20.51270580510536   21.31312879415208
H          40.59951240537315   21.22004504309610   19.69508274505012
H          39.87506301973531   18.30197519810964   20.26548019760821
H          41.47441789697669   18.89425564596203   19.78899348000259
H          40.11198300721529   19.00208387702791   18.66299451028507
H          35.45155400136228   32.95137287889861   24.39434297920130
H          41.70515371640048   23.95904655153640   28.36654148103885
H          40.98793738330448   22.58334363558750   29.22013649835413
H          40.42839323330325   24.22984600424671   29.55409580033293
