176
 SCF done       -332.123690595306          0.000498139222
C          -0.70162764098196   -6.52373907448977  -17.19757071912119
C           0.56358834107679   -6.01820403451934  -17.12875620910942
S           1.50176596278340   -6.72015696592542  -15.87573884132058
C           0.16794893021841   -7.74038629285497  -15.41144941972640
C          -0.92227128717300   -7.51042739928956  -16.21503211173747
C          -1.72758463438681   -6.11974066579822  -18.20942157430317
C           0.31964867681375   -8.65063344040632  -14.31254203842492
C          -0.65300579563917   -9.52377681543441  -13.84618243761307
C          -0.45981226496619  -10.39326738011439  -12.76261639941493
C           0.71601514185353  -10.48205093155168  -12.02860961939252
C           1.73197226222566   -9.60238718247561  -12.48049765100576
C           1.53175739558952   -8.72547581811620  -13.58583794204035
N           2.98429022367148   -9.40208012818087  -12.04376352742763
N           3.46530845873143   -8.48509768077319  -12.83717480055385
N           2.66739983705247   -8.04147096958883  -13.76511928027410
C           0.91088673611138  -11.36757804372811  -10.92105554759820
S          -0.30217759007133  -12.48660019357485  -10.38448510649961
C           0.74201711304941  -13.07525553958545   -9.12207807510872
C           1.96796758055922  -12.42055342942813   -9.12704807220562
C           2.04575530393934  -11.46521451325582  -10.14524742534498
C           0.26203925946764  -14.10936550110026   -8.27502736088989
C          -0.97738273212462  -14.71004694751006   -8.33181285830402
C          -1.14599358102695  -15.70690459686336   -7.36924766611689
C          -0.05606578613645  -15.91373377875715   -6.54567756229927
S           1.21326436306073  -14.81052513522529   -6.99297100233276
C           0.15388580631625  -16.83475279790029   -5.48047299790142
S           1.48472085624544  -16.59794736895077   -4.38505978634920
C           0.00153497847795  -18.66067379089948   -4.02171563906945
C          -0.52381149853382  -17.98437023422058   -5.12458341536390
F          -1.86401649597674   -9.57434266543415  -14.43534254940441
F          -1.50389356356767  -11.18007576651125  -12.43432098815344
C           3.06380905239111  -12.71364843355160   -8.15095607946517
C          -1.84419863465132   -7.16818558957574  -19.31660331912968
C           4.30855396603045  -11.85589641050549   -8.34016168033661
C           1.11019456731963  -18.04273278073801   -3.48556936304541
C           4.79398059370313   -7.96628502758099  -12.67906012785322
C           4.74594812545363   -6.54213659927789  -12.13616656599304
F          -2.29725749014566  -16.37634856208933   -7.24908118725824
F          -1.57946240588336  -18.45882011705081   -5.79586927515737
C           2.93397225859168  -17.92257314789720   -1.70139805027095
C           1.88208902245071  -18.51039662771787   -2.38599198521498
S           1.50815141367689  -20.08872389241550   -1.73755254873889
C           2.78183631790187  -19.95670680079629   -0.56419552863902
C           3.42849201279686  -18.74693102365316   -0.68253635061413
C           3.53958921572312  -16.58666430542351   -1.99261260221440
C           3.03563825157189  -21.04435319729860    0.33025150138772
C           4.05631302695904  -21.10104315468777    1.27103307459573
C           4.28547706528039  -22.20994138802373    2.09574651379749
C           3.52881824202469  -23.37667512533534    2.07369095049587
C           2.46635816335304  -23.34370340219226    1.13485262826125
C           2.23751409841109  -22.21256828228966    0.29988912986205
N           1.52791258006506  -24.25168623275919    0.82828644798624
N           0.81535132302242  -23.68497990972502   -0.10584326785337
N           1.17659763964536  -22.48646303886438   -0.46647937015072
C           3.78976048070199  -24.51739916660013    2.89509733444735
S           5.11014717616306  -24.57739069975417    4.01959144946295
C           4.69305915653796  -26.20133524323639    4.48643457063018
C           3.57546111078569  -26.65919228069907    3.79766920757323
C           3.08079871792212  -25.70041031397736    2.90823278269315
C           5.50389260819294  -26.84671613622466    5.45658713693385
C           6.60240244838093  -26.29749867701495    6.08709739120286
C           7.20424772187514  -27.18108780335377    6.97746659217197
C           6.60605725540638  -28.42450812124510    7.06829637053243
S           5.23650393102620  -28.48280552657281    6.00036183734192
C           7.00227199123840  -29.52478056560184    7.87198627545909
S           8.38604490886616  -29.44150726576371    8.91899172125771
C           7.06621699351339  -31.65084987328553    8.85182776443621
C           6.42790563730752  -30.77756930896301    7.97447848315701
F           4.90023875195405  -20.06215652115924    1.42415155126943
F           5.32285004944126  -22.11202121126178    2.95115385257555
C           2.98974576603613  -28.02178473119293    3.99638733982273
C           4.65103689770136  -16.70603930268933   -3.03732870939251
C           1.74967459576870  -28.29245384455171    3.15393934091460
C           8.16559872314233  -31.08189659047493    9.46251155552244
C          -0.28881985536287  -24.35471270831583   -0.73176218903460
C           0.06860838066470  -24.73920992745582   -2.16341370510785
F           8.28979247082309  -26.85830666554100    7.69911458729756
F           5.33507550711497  -31.12354514805853    7.27224297449486
C          10.11418158195296  -31.22947847884367   11.10499522539120
C           9.03150429131892  -31.72139969179151   10.39186229190038
S           8.75232445945307  -33.40871153737258   10.75139481447745
C          10.10531463880281  -33.44677757132952   11.83996235942233
C          10.70712528496514  -32.21037010314426   11.90964756836821
C          10.66153253751242  -29.83963322699020   11.03731716788303
C          10.45127429728785  -34.66615253640988   12.50400828685464
C          11.55539612194329  -34.85399426821368   13.32622903602087
C          11.86558636016961  -36.07628101632321   13.93660778617498
C          11.11396220800241  -37.23742535012519   13.79709058801610
C           9.97209882960429  -37.07613745063517   12.97174044431403
C           9.66224075693709  -35.83121691158024   12.35179089300589
N           9.01301021304488  -37.94150439705978   12.61140849429237
N           8.21446646522416  -37.24749197027136   11.84823063207439
N           8.53593187235905  -36.00056507233855   11.65087803400644
C          11.44585233340392  -38.48609637173461   14.41076081714664
S          12.85050549461675  -38.69517646866617   15.40811332304231
C          12.46699118049555  -40.37219828548434   15.66694805531020
C          11.30053525040849  -40.73760482449950   15.00629193162738
C          10.73964987023223  -39.66534745390990   14.30475267957914
C          13.34271578503995  -41.14230051364731   16.47988796707227
C          14.49549257327226  -40.69470151265075   17.08667545897372
C          15.14564082713615  -41.69000440277718   17.82039897950186
C          14.52427519276540  -42.92121722173696   17.80992966567777
S          13.08330624063741  -42.82807761356878   16.84190204965864
C          14.90203127629028  -44.14816405277129   18.43909522324245
S          14.31562150283635  -45.67325005769273   17.83945643707647
C          15.86981490529478  -45.72734961480398   19.87604544855676
C          15.71233473678160  -44.37119546609763   19.52853910919040
F          12.40489890763839  -33.83763291913456   13.56995381822828
F          12.97629705952363  -36.09660543776335   14.69963411843889
C          10.72819874407764  -42.11973956523082   15.05021211375441
C          11.66708194535720  -29.70198005384134    9.89239373735405
C           9.44782739318931  -42.28614945883158   14.24165768165262
C          15.16994165971890  -46.54444413773984   19.04854465952671
C           7.06381536392592  -37.83362205156223   11.22272872287957
C           7.35884230673613  -38.15024078583978    9.76009480732230
F          16.30681922554985  -41.45866439090208   18.44123269571904
F          16.27784590389086  -43.39445637827313   20.24652550299664
H           0.99915033727415   -5.26050936713824  -17.75035507775359
H          -1.85964560822856   -8.02351449023197  -16.10862191049817
H          -1.45110702462811   -5.15766806632240  -18.64463501731014
H          -2.69525800471725   -6.00799436395260  -17.71550970365217
H           2.89950136961831  -10.84469027190426  -10.33692234733055
H          -1.74026996865184  -14.44068814709716   -9.03921034584356
H          -0.41643466007176  -19.57279145947505   -3.63714684129417
H           3.33820253891460  -13.77018325498226   -8.23612443040745
H           2.67845847712009  -12.57051186628011   -7.13615455518630
H          -0.89214363705021   -7.28337268731219  -19.82996382632627
H          -2.59641168589545   -6.86939171116346  -20.04271366717547
H          -2.12783688791062   -8.13139492506913  -18.89942227261609
H           4.73810413675870  -12.01169504027707   -9.32660458855836
H           5.05368181818011  -12.12549511095197   -7.59547726073096
H           4.07180705722455  -10.80141312713231   -8.22199149563374
H           5.28071187267658   -7.97723427584495  -13.65729663731095
H           5.31794815794134   -8.63381765307393  -11.99323965451677
H           4.18222460601269   -5.90876803911729  -12.81625481409332
H           5.75399734231177   -6.14951996092211  -12.04063537531032
H           4.26855149567334   -6.52341628070878  -11.15943811564700
H           4.24534513704449  -18.45074989047186   -0.05081683707231
H           3.96002999016918  -16.18632401262877   -1.06804133017283
H           2.77674980341740  -15.89204719234244   -2.34812897573673
H           2.22761167062690  -25.83863570352549    2.27260715083610
H           6.95704198985898  -25.29896158124883    5.90955086894303
H           6.73788329642027  -32.65748428571869    9.03350467209018
H           2.74089063212035  -28.14725350285238    5.05509305973049
H           3.75407696593011  -28.77065984345177    3.76423423347904
H           5.43288391049622  -17.37185602874959   -2.67944962966703
H           5.08644826212343  -15.73005568856222   -3.23439501802781
H           4.25841004971807  -17.10315981261946   -3.96988606021556
H           0.96103176473303  -27.58205201537437    3.38946508147807
H           1.38126955966573  -29.29451465030478    3.35977404680804
H           1.98030554017074  -28.22345964292130    2.09370864400868
H          -1.14371034465973  -23.67411619778695   -0.72993652899081
H          -0.51189582657017  -25.23592008829486   -0.12844559307196
H           0.33555720627036  -23.84893585138702   -2.72704384161562
H          -0.78164816248289  -25.21763819671436   -2.64031015310873
H           0.90978160956879  -25.42809368122765   -2.17366718929164
H          11.55962626542073  -32.00354950468227   12.52959198841421
H          11.16337988641837  -29.61786871244379   11.98109889653253
H           9.85528059455478  -29.11650282818428   10.90444579028878
H           9.83948643336129  -39.71880837323305   13.72357227670289
H          14.86565882214606  -39.68938447899578   17.00240343590481
H          16.47090390592608  -46.05302302486777   20.70436881703183
H          10.53287522067504  -42.38620311685440   16.09403209796946
H          11.48121853971005  -42.82427163132758   14.68228685395230
H          12.49689132457597  -30.39025389378921   10.03597731079467
H          12.05549372284095  -28.68792947423602    9.85667275455625
H          11.19519626895290  -29.92311711507404    8.93855961590113
H           8.66690600585269  -41.62908736124697   14.61630818146535
H           9.09830983998011  -43.31283481282303   14.31932783429683
H           9.62265197371098  -42.06226716623244   13.19227773991245
H          15.10154888836746  -47.61299980123612   19.07391020311377
H           6.24284462649346  -37.11698127473334   11.29429367560833
H           6.82096440591295  -38.74082747704804   11.77819677023634
H           7.63554154384733  -37.24034076635827    9.23370227921291
H           6.47714166455250  -38.57541418738378    9.28976451422381
H           8.17557549465581  -38.86394264752273    9.68407183958958
