215
 SCF done       -395.535848640389          0.000580853235
C           8.70166142523323    3.41108522307312   -4.72445957245932
C           8.31814500862202    4.56611559507156   -3.97349833009413
C           9.17960029473548    5.61695303679388   -3.67749697883661
C           8.81444949279038    6.76115293615412   -2.95917125880094
C           7.54071012363121    6.96954250204586   -2.44545828821235
C           6.63292203253440    5.90844372332517   -2.71060373019011
C           6.99989235635207    4.73695728375754   -3.46156900495118
N           5.36531894305150    5.87071965587670   -2.31477123565009
S           4.69305142450080    4.50323109993281   -2.82789282149612
N           5.97744274204751    3.89367151801066   -3.57849552511292
S          10.34535054814251    3.14243893480639   -5.23288309928487
C           9.92005470987413    1.65201209295128   -6.01231790628530
C           8.56559576204562    1.40332477611503   -5.87413373319595
C           7.88830601096088    2.37892767194192   -5.15397698756092
C           7.12490618981380    8.12294994486951   -1.70871515369772
C           7.81052285715690    9.29416144883724   -1.44680598821199
C           7.07985857120929   10.20341208366766   -0.69055143599054
C           5.82023734061410    9.75093077026800   -0.34251746413391
S           5.53967970200338    8.16326807159633   -0.99527224149919
F          10.45840519821026    5.56620090213531   -4.10138367616102
F           9.78256630509969    7.67882389713270   -2.77493891755292
C           4.85907013319458   10.45406287464662    0.43285749456321
C           3.62497436684635   10.04284557679947    0.91526018987688
C           2.99495005773933   11.03971645747077    1.67467804630659
C           3.70841741863587   12.20544154437244    1.78821303426593
S           5.20833714344458   12.09253483175116    0.91362124126127
C           3.05340181516222    8.68324350324134    0.66506424746049
C           1.72580126055586    8.43149110093809    1.36871229494665
C          10.85409311805491    0.82791936509683   -6.69730785487987
S          10.25817553847620   -0.57701704768366   -7.53033230970732
C          11.85548173011479   -1.01154564157015   -8.04044982075154
C          12.77213265374358   -0.07806262958968   -7.59654656261606
C          12.22831137443412    0.96994000802022   -6.84857808965764
C          13.01127611516929    2.10627147195679   -6.26828571281765
C          14.51153503990086    2.03109204671603   -6.52245382814884
C          12.15917273975117   -2.20585187063895   -8.79097208911231
C          11.24000758851511   -2.95036181087489   -9.53755906024876
C          11.64957491202609   -4.08074710339576  -10.25855586674621
C          12.94867396939205   -4.53174820493728  -10.26015461864980
C          13.86917194237614   -3.81205974284217   -9.50078620818002
C          13.48538363030407   -2.69286784019829   -8.79679967919439
C           9.79297221350726   -2.77615141272840   -9.79006152767760
N           9.42815352975498   -3.79034309229585  -10.66201493947745
C          10.47848476158731   -4.63139065494992  -10.98085631984310
C           8.07332794299468   -3.97746898499194  -11.13486571233673
C           7.23801739242789   -4.76140455318221  -10.12919178150077
O          10.40770979668034   -5.58939113667786  -11.70872307651280
O           9.01661282547301   -1.95006565238491   -9.37018175708862
C           1.99601122641079   23.62280730508675    4.42151991939512
C           1.65645897436013   24.98247754363870    4.70736799668016
C           0.60362878072918   25.35316801441838    5.53679831202992
C           0.25925326499973   26.67556924871840    5.83618081792640
C           0.93418201500001   27.77772496669606    5.32637371423381
C           2.01194638130595   27.44226516530248    4.46232105486312
C           2.37454138141195   26.08282799972667    4.15792590913958
N           2.79906308890627   28.31810993704748    3.84752396345951
S           3.88791004707040   27.52429270400631    2.97070966802027
N           3.41462474531627   26.02995197122655    3.32985665684021
S           1.05193111947864   22.29581111446074    5.03545139171863
C           2.08329262616155   21.13123074173559    4.27083051239932
C           3.10237022259055   21.76723758081348    3.58374579007736
C           3.05447188972731   23.15395648717673    3.66682166693858
C           0.61607776252731   29.14178630771682    5.61341459482864
C          -0.34763006776291   29.65605118366139    6.46004416175574
C          -0.36212024934978   31.04505185380673    6.49821557448617
C           0.58732900049053   31.63512973059310    5.68407077569957
S           1.51495679234902   30.42193217910630    4.85267333611605
F          -0.15550883816573   24.40061709939679    6.11376770165021
F          -0.78959021082282   26.83794644262728    6.66431786393982
C           0.78867532247206   33.03571007235693    5.53376700157399
C           1.70425431190123   33.75567758231978    4.78544313359618
C           1.53588190954911   35.14297586384365    4.92169697526118
C           0.51910338066528   35.51627330297958    5.76264968520390
S          -0.25948308514513   34.10700501110981    6.42646929960888
C           2.74123701221832   33.17700999738597    3.87780802611779
C           2.15293246500196   32.91140923918635    2.49077284746271
C           1.87070109346869   19.72674175170468    4.35249797607459
S           2.97735358879672   18.67488988268201    3.50952690383557
C           2.12524614058415   17.24811566819816    4.04418767486618
C           1.05125616703396   17.61034716585058    4.81827273244191
C           0.89663824339895   18.99140922770041    5.00744568102445
C          -0.24033422706607   19.54421624073471    5.80542460106405
C          -1.41803409185231   19.91488045988688    4.90175564408139
C           2.55433215438543   15.94764709918146    3.60040018682963
C           2.19495257074151   14.72796583280912    4.18430814903563
C           2.57641928422877   13.50252758598774    3.61246374479677
C           3.34827528591987   13.43182779477824    2.45324159504339
C           3.78691676776817   14.66453483846182    1.93052175429530
C           3.40051807259234   15.85942391482740    2.47334879736462
C           1.49970733256878   14.42371849439604    5.45922092544809
N           1.50348815500773   13.04541581407436    5.57213491718908
C           2.11988141192747   12.41414260248660    4.50866654805357
C           0.91516708728620   12.33874886731712    6.68899147616827
C          -0.56157620586448   12.04963117363914    6.44409134121188
O           2.24767767449818   11.21631072659922    4.42206158823447
O           1.03347260280829   15.15330911327110    6.30175222646670
C          -3.93173858974031   44.49127583859791   12.04279331007218
C          -4.33767624269932   45.64237738321341   12.78847649724392
C          -5.19445264083206   45.62925669447803   13.88187313764917
C          -5.55943838732270   46.77926274363448   14.59090476702925
C          -5.11568767748703   48.06252517600910   14.29131034731627
C          -4.23673648310095   48.12326362916191   13.17189305043447
C          -3.86268002520200   46.93763793015121   12.44669068917727
N          -3.66237795990731   49.20850467614971   12.65953622823089
S          -2.75086815174831   48.78881838550864   11.40337010721433
N          -3.03581864816409   47.20683914479010   11.44242580951190
S          -2.82583736623518   44.66911709740356   10.71244094372801
C          -2.84734028942783   42.95729726707415   10.40283669940625
C          -3.68010502949451   42.31205806194367   11.29907369496773
C          -4.28515411296501   43.16580826751981   12.21338457980337
C          -5.49479869702847   49.22652714273297   15.03061046143804
C          -5.10858108926987   50.53299517727022   14.80425975497086
C          -5.64920703917391   51.43564736794298   15.71364176954798
C          -6.46106063720752   50.84928340181120   16.66629566857355
S          -6.55540116502866   49.13813045226943   16.41023581535105
F          -5.72390986316607   44.47209391762451   14.32171251571775
F          -6.39762411941604   46.59208650276496   15.63013412747997
C          -7.14364884861000   51.52774702715352   17.71856356139333
C          -7.89320144946668   51.05027116232630   18.77423178744670
C          -8.38211428757361   52.09434635710106   19.59279105906219
C          -8.01535830626717   53.33272751631701   19.17684503506396
S          -7.04796580522702   53.27564117767322   17.76282186225375
C          -8.21496298197116   49.61701949136573   19.05229877030845
C          -9.45773553863124   49.17284307586932   18.27784968000697
C          -2.09279044575457   42.33850842859616    9.37049168536073
S          -2.19777171656813   40.61075090642404    9.18775614127885
C          -1.09204063941139   40.63212108131221    7.83863925978304
C          -0.67824018459026   41.91695455905706    7.58560047505028
C          -1.23031275751786   42.88838450520106    8.43258216862307
C          -0.94146848582598   44.35349105250186    8.34269255925012
C           0.02442611614040   44.72732394507543    7.22547989819546
C          -0.71469336441678   39.39038790269219    7.21585932453150
C          -0.19805655489416   39.24503805127677    5.92472866738054
C           0.19408182321155   37.99034798149453    5.42569859634244
C           0.08862749668817   36.82480855954561    6.18463610967864
C          -0.49750290406466   36.97413123686569    7.45844220028147
C          -0.87635167811344   38.19334735460653    7.94698894713047
C          -0.05013881034679   40.22788856725563    4.82442215542680
N           0.40505069244501   39.50809204890958    3.73490022609744
C           0.58566126201374   38.16504266738200    4.00741255683725
C           0.67702959998840   40.10333369183609    2.44482641582743
C           2.13574424600089   40.53123418732395    2.32884885128181
O           0.95732145389011   37.35957935309121    3.18772804094463
O          -0.28179482763444   41.41321029708437    4.78451993632863
H           8.09650418661732    0.53135918878585   -6.29413643215242
H           6.83606432290977    2.35576927012385   -4.94191169774109
H           8.80714576934251    9.48940462454321   -1.79530753468038
H           7.45132078001786   11.16803588164935   -0.39207809033418
H           2.03077383358008   10.91647307574651    2.12627735959818
H           3.78138123934186    7.93496794471118    0.99425819149827
H           2.92802369525881    8.54327791402916   -0.41382142767368
H           1.82733907768418    8.57526181932027    2.44153076530207
H           1.40438007846717    7.40869948786980    1.18635639868129
H           0.95520949505666    9.10180685194556    0.99490317489998
H          13.81725113132960   -0.13571406804668   -7.83547511988400
H          12.83246605246520    2.13956781647141   -5.18877611430239
H          12.62472037686616    3.04508211581894   -6.67773095875430
H          14.93278861722700    1.12499861654056   -6.09274818310744
H          15.00068102223669    2.88527442668260   -6.06081905889878
H          14.72721017242014    2.05175330587488   -7.58821526462889
H          13.23074559252618   -5.40553634458625  -10.82504081981383
H          14.89818127980770   -4.13639034670168   -9.45982396593525
H          14.22641397041226   -2.17624280915520   -8.20816435766334
H           8.13646079162776   -4.51573796619446  -12.08343250025852
H           7.63953315220152   -2.98739917240103  -11.29611332473942
H           7.67507786163251   -5.74300351159062   -9.96085182641227
H           6.22815993090213   -4.88791171995707  -10.50907679492749
H           7.19269028207158   -4.22585776708690   -9.18381065829576
H           3.85541817359017   21.22516206844017    3.03926703409819
H           3.75887742372409   23.81507268122114    3.19819079861614
H          -1.01967124534682   29.04897079978698    7.03629608937187
H          -1.04394106361893   31.61771446288781    7.10210719901071
H           2.16127593370086   35.85122455175798    4.41203655653560
H           3.13890190352173   32.24906240776282    4.29216769992753
H           3.56139919563619   33.89173022676785    3.78713607296120
H           1.34504101111059   32.18666038479964    2.55207043472544
H           2.91899849753084   32.51917528778773    1.82702931451362
H           1.76115404359004   33.83452727291552    2.06988452154171
H           0.37789487978370   16.89758970607283    5.25361404299441
H           0.07844474707927   20.42295655223899    6.36835537052830
H          -0.56064200282609   18.78282341559380    6.51877030520629
H          -1.12336293544703   20.66776059031227    4.17494854865593
H          -2.23429888571127   20.31410216509361    5.49751838071054
H          -1.77256149191375   19.03725736387545    4.36552082247833
H           4.42561625679782   14.65471414511025    1.05960548242859
H           3.73800327739657   16.77815438220109    2.01646537425339
H           1.47154571951456   11.40657373768900    6.81205221833724
H           1.03748363640988   12.96659407668031    7.57489262891345
H          -0.97845272775202   11.51847410236724    7.29499845949480
H          -0.68231890455588   11.43577941753863    5.55440548681332
H          -1.10876269540999   12.97985785733860    6.30982586631181
H          -3.83603806504394   41.24767135189195   11.28140223977758
H          -4.95917148791530   42.82342896426037   12.97560034331154
H          -4.45283302010736   50.80376708527598   13.99843425372298
H          -5.45841805300827   52.49408679563680   15.69117555985806
H          -8.98634550342163   51.91751783514830   20.46513512259586
H          -8.24993876236687   54.28180904846695   19.61607275454022
H          -8.39951387270797   49.50215680839656   20.12251091716925
H          -7.37262920015921   48.97748434399595   18.78324504697980
H         -10.31468691400480   49.78255474926591   18.55601150439325
H          -9.68228323484339   48.13249252824068   18.49687701631528
H          -9.29644416686238   49.27139851762027   17.20753006366948
H           0.01280160633437   42.14893045727040    6.80046062996011
H          -0.53899439835672   44.69465408671194    9.30232334428910
H          -1.88699760380760   44.88535327888332    8.19512694799682
H           0.99857945167893   44.27186623447952    7.38768873063851
H           0.15285833304133   45.80693698631232    7.20064871698485
H          -0.35730811055892   44.40358258298657    6.26054670819786
H          -0.63011062045306   36.09305198489573    8.06875151029815
H          -1.30200951724220   38.25392297326644    8.93769040890236
H           0.43814775296098   39.35712000832021    1.68316322773688
H           0.01631379998205   40.96726045452125    2.34111265588058
H           2.31193218274678   40.97655415850987    1.35385587096887
H           2.78922854240540   39.66956074653374    2.44350911907235
H           2.37583808976001   41.26296781498700    3.09688169456921
