149
 SCF done       -276.889799751110          0.000426719102
C          -1.23539254352850    1.31953821065150   -1.69972498565994
C          -2.23606498709098    0.72620350113165   -0.90951830436548
C          -2.36461469501184    1.07543853719435    0.47197714120463
C          -1.50564768002309    1.95671321164455    1.10854445835747
C          -0.47773466054952    2.51069344791948    0.31838061490670
C          -0.37327365175090    2.19328243575333   -1.04619251017852
C          -3.18221228966640   -0.25387382041567   -1.30095521299837
C          -4.04118611796552   -0.64002219221702   -0.31160765732585
S          -3.71253212144604    0.20595185265690    1.18895371631791
C           0.53254224992158    3.42895661700064    0.72419412334591
C           1.35259893843159    3.77968956447762   -0.28876085022138
S           0.95573903735805    3.02646236359722   -1.79690932172390
O          -0.98363707681240    1.10807452462891   -3.01424089454464
O          -1.50817049489489    2.37469192980630    2.39912488067473
C          -5.09444831204897   -1.59175460336027   -0.33187905186667
S          -5.93878524036311   -1.92038459550036    1.15472709037722
C          -6.99254148500098   -3.10142884626578    0.42931505093573
C          -6.68319540964093   -3.21992321565299   -0.90805951236202
C          -5.62588298206744   -2.37459333760708   -1.35926755230154
S          -7.36060590685322   -4.19270764791908   -2.17789870241846
C          -6.25867034815036   -3.47560866425632   -3.32721253855721
C          -6.31335040170907   -3.88229397212072   -4.73153558736879
O          -7.25096616813629   -4.82782047641820   -4.89767337508772
O          -5.61706524118644   -3.44279846773159   -5.61147083550589
C          -7.44888148648822   -5.31254935567307   -6.22399843214842
C          -8.37395276954864   -4.39951712533126   -7.01611001490871
C          -2.03519666483699    0.86074859637992   -3.93795570183097
C          -1.67016493461038    1.54377922791269   -5.24853451483101
C          -2.41993120692885    1.84313282940704    3.34112708836583
C          -2.11116162491700    2.49105968230839    4.68207581306089
C          -5.42554902629130   -2.55555988195890   -2.75349909744208
F          -4.51551763597225   -1.88925288546715   -3.46575732585227
C         -10.35007923009671   -4.69612750675689    4.09003114813647
C         -11.29831136563002   -5.73239332054880    4.00668371102666
C         -11.44048143083959   -6.48656356863363    2.79909934232130
C         -10.66244155780330   -6.25976527730636    1.67531490701331
C          -9.69567234995196   -5.23401325696011    1.77639494701805
C          -9.56431555821842   -4.49125140709894    2.96476703408257
C         -12.17992317374899   -6.18180469305012    5.01919693470633
C         -12.99924279958387   -7.20643960158773    4.64170945738643
S         -12.69461820193785   -7.70357327386159    2.99093081213090
C          -8.79450252833509   -4.80303928211470    0.77609678517237
C          -7.99156548751682   -3.77264571981684    1.18470869794088
S          -8.31954107162013   -3.28597268125884    2.83819883386313
O         -10.08371343399678   -3.90119389894138    5.15467790154803
O         -10.68897987495205   -6.88057944293275    0.47280109611959
C         -13.99322057874226   -7.86845729695380    5.41150679177566
S         -14.48604545559716   -9.48779022857973    5.01090623471624
C         -15.61791032834919   -9.58608873916589    6.33365232064435
C         -15.60659100435258   -8.39613898635746    7.02968445068452
C         -14.70006283624760   -7.41940138502600    6.52558559621360
S         -16.49867767161784   -7.82991317359316    8.40953064918574
C         -15.69391127897922   -6.28188575094934    8.31097176199899
C         -16.02369557225442   -5.23573210236527    9.27979196873069
O         -16.99764354509413   -5.66204259911979   10.09773216143290
O         -15.50343982484282   -4.15031061246552    9.33534028821887
C         -17.41396016989941   -4.76760206200058   11.12747268987121
C         -16.51177258579709   -4.87187248171227   12.34865464411226
C         -11.11693037532771   -3.46785994768546    6.03071999446575
C         -10.81711060006210   -2.03019253627121    6.42989426351494
C         -11.59410678025087   -7.93422226894586    0.20416805271270
C         -11.35206453316335   -8.37495102751910   -1.23108755711721
C         -14.79659639481684   -6.22097876872924    7.28184738535866
F         -14.09510127962700   -5.11973694987620    7.00966776086222
C         -17.70280496526203  -14.38131243703606    6.47909501371300
C         -18.72080378531587  -14.84223588850442    7.33025073419033
C         -19.31984741406479  -13.98157912726348    8.29316757092355
C         -18.93874136631045  -12.65515147948503    8.43509714998287
C         -17.92051484433401  -12.19642956327341    7.57131953080271
C         -17.33036699163186  -13.05605681586050    6.61877526471657
C         -19.27878682283047  -16.14462556155496    7.34105476742812
C         -20.25431296214045  -16.32019657681596    8.27743261552004
S         -20.54884390754445  -14.85484645802712    9.19235643964979
C         -17.36215378632738  -10.89871147839179    7.53990135359677
C         -16.38438317830343  -10.75392902397294    6.59425738074829
S         -16.11166396236339  -12.23269081888417    5.68940000591903
O         -17.13448746519480  -15.17163119539532    5.51485949456438
O         -19.40419116750478  -11.72269091370034    9.29490052244652
C         -21.03045449455541  -17.48034296112462    8.56296209938977
S         -22.57548798756923  -17.31878822413916    9.34534948567788
C         -22.87677313641063  -19.01088227656908    9.31695652710378
C         -21.83811487886609  -19.67282399240729    8.74026128440523
C         -20.77084739999697  -18.82104298863194    8.30704069310743
S         -21.51605489502699  -21.35811359660481    8.44411333785595
C         -19.95018165838130  -20.94505148313518    7.78147204005962
C         -19.10875919457629  -22.05996919443060    7.33577948493036
O         -17.93178787292299  -21.64557908695529    6.86121585312872
O         -19.46515553487469  -23.21198957112549    7.39312879155013
C         -17.02750937458517  -22.65924186013802    6.42168352236736
C         -16.27737559679789  -23.28138150609328    7.59064732931225
C         -16.21912555728267  -16.15939469446434    5.97667758634066
C         -14.93596029468465  -15.54871583576689    6.52733088933309
C         -20.46995536858947  -12.00727025191670   10.18174246908158
C         -20.76065498539469  -10.73082237140438   10.95532146879867
C         -19.70765239307281  -19.60022607971205    7.77868929707821
F         -18.56266547381590  -19.07027123821383    7.33922421776320
H          -3.19854219113006   -0.68597220588017   -2.27860700318691
H           0.61622112166230    3.79014609425207    1.73218100876237
H           2.18984850600749    4.44892463906126   -0.25553579565603
H          -7.88503622858791   -6.30570891736466   -6.09905342851113
H          -6.47612258479986   -5.38934476083136   -6.72134879153179
H          -9.32234855043068   -4.28342197661758   -6.49669127145902
H          -8.55495066912438   -4.82755136211179   -7.99785341523971
H          -7.91444446620110   -3.42157095379916   -7.13784682166092
H          -2.98084679610193    1.25752307797696   -3.55290609123560
H          -2.13731879690713   -0.21893258908375   -4.10323606383299
H          -1.59533761965056    2.61879231346466   -5.10542491574274
H          -2.43074604139106    1.33167198114887   -5.99442508627386
H          -0.71094383697208    1.17414058633174   -5.59991397366890
H          -2.30152994533912    0.75488805663886    3.41249363295430
H          -3.45172485532739    2.06819892677105    3.04328420424186
H          -1.08949402215753    2.26670918944522    4.97639521103867
H          -2.79282830121190    2.11195549102187    5.43752052354874
H          -2.22227375745582    3.56937392719766    4.60777765180849
H         -12.17442387693786   -5.79472176067677    6.01736436632915
H          -8.74933975273593   -5.24970222570730   -0.19941529131803
H         -18.43691143764763   -5.06658313694157   11.36484357293786
H         -17.40291484822731   -3.74581089483191   10.73383697895909
H         -16.48012635402632   -5.89865794202875   12.70538551605784
H         -16.89300505661721   -4.23164121394762   13.13875461492242
H         -15.50370452693586   -4.55400033346792   12.09359222792958
H         -11.12755824633710   -4.10224313707096    6.92579130146357
H         -12.09145949106083   -3.52868024373501    5.53653049257147
H          -9.83829703538079   -1.97318142678481    6.89790406099789
H         -11.57174149908786   -1.68409268986645    7.12998124010559
H         -10.81871048902439   -1.38859697158962    5.55264023725116
H         -12.62826902274409   -7.58818839083617    0.32409715821489
H         -11.41918347175586   -8.77159472590992    0.89099727198887
H         -11.51964994212578   -7.54163844683702   -1.90773412328282
H         -12.02812575442999   -9.18571678105049   -1.48516057458766
H         -10.32616384625717   -8.71329721606051   -1.34666491929753
H         -18.98650587481543  -16.90076422670716    6.63799170829838
H         -17.68540083985853  -10.11265689133568    8.19603008773687
H         -23.78491919727855  -19.40519639596256    9.72247022044506
H         -16.34520979275264  -22.14708360138061    5.74058935322922
H         -17.59184059619218  -23.42736542403096    5.88243523340765
H         -15.75935422403718  -22.51129069073334    8.15737592726975
H         -15.55158773036061  -23.99756972541061    7.21645632470783
H         -16.97425574658568  -23.79715312858298    8.24694158593223
H         -16.00738199214623  -16.76306917532056    5.09160688197579
H         -16.68729776811143  -16.79499236226748    6.73801427502299
H         -14.48375334300925  -14.89595094814925    5.78468527160574
H         -14.23579214267230  -16.33954191966641    6.78151532499724
H         -15.14549399622761  -14.96507758165493    7.42194511670671
H         -20.18652451050416  -12.81203671370503   10.87155433220829
H         -21.35836201350766  -12.32026233099288    9.61938519869865
H         -19.87409145921140  -10.41777569794705   11.49966764154658
H         -21.57081001381029  -10.90339901669769   11.65729251425561
H         -21.04328453842870   -9.93743119444713   10.26900601138626
