278
 SCF done       -463.898551474608          0.000943984963
C           9.83367826047188    0.13213275285046   -8.60899774321514
C           8.75304533305047    0.06068047297237   -9.49795449410202
C           7.52715918224852    0.68705758036707   -9.17092588990010
C           7.32495134788901    1.40503875201138   -8.00102325877026
C           8.40462482941159    1.47447109853379   -7.10656872211061
C           9.62482975327720    0.82822928401584   -7.42900765347934
C           8.68488153712105   -0.60645729875836  -10.75757760388210
C           7.48689152204668   -0.46845742749742  -11.35936183352431
S           6.35214925641624    0.46576757141797  -10.44416905661889
C           8.46174884910488    2.10757665138448   -5.83707227888889
C           9.66938659811326    1.98193947163558   -5.21532200138133
S          10.81416010209215    1.05734620880636   -6.17716231519217
C          11.12861020935316   -0.49495625753301   -8.91318649295107
C           6.04111135412703    2.06490944655834   -7.72729105428539
C          10.07236051758646    2.45988153400795   -3.93615078635097
C          11.29781427152019    2.23051280593073   -3.34109301469391
C          11.38952387206250    2.78691120529774   -2.07588050125080
C          10.24700129527463    3.46506253961414   -1.67545396196291
S           9.03179075242055    3.41327208921882   -2.92299574373324
C          10.10555373399520    4.05544630755559   -0.39328744542821
S          11.38915623244590    3.75429196755957    0.75051482829167
C          10.59295289490868    4.65820938028677    2.00593185833518
C           9.40886561417698    5.20660627522420    1.54484977120077
C           9.12797400365706    4.85755420435759    0.18452349074681
C           8.57624633649831    6.14169985266351    2.30968301883835
C           7.47124573120456    6.70971792691220    1.54260183775892
C           7.16837106179325    6.32173576958051    0.20114339288384
C           7.94864263359000    5.32698896449235   -0.52454558438457
C           6.61605414633870    7.66809926475770    2.02864788570023
S           5.44285256196250    8.10856224163666    0.83615596390557
C           6.08997167538471    6.99488407455378   -0.31859439674104
C          11.23008761263198    4.68209502289148    3.28329690270643
C          10.69012773510711    4.69763242227627    4.54911702422801
C          11.64566489238767    4.58479104350305    5.55938139557743
S          12.96659049588462    4.52792976349695    3.35580935181302
O           8.78823283775818    6.45249317379014    3.47301342796932
O           7.63048535443028    4.93420731518831   -1.64496303469964
C           6.62663554181504    8.29446333855993    3.37554580368707
C           5.58866400534435    9.39475833654344    3.53965183008081
C           5.49048167894565    6.84570280868859   -1.66862515892721
C           4.50775250806743    7.95465883326631   -2.01581399235919
C          12.93721688425438    4.48608558595327    5.08838531223715
C           6.00140884061749    3.41410636526485   -7.39974407388723
C           4.78700701942685    4.04331221125464   -7.16571244365567
C           3.60096126133127    3.32990688521815   -7.27231892630059
C           3.64252204568863    1.98247986670533   -7.58202857426499
C           4.84936751161163    1.34789028636321   -7.80676220712770
C          11.78050653308186   -0.20925960952911  -10.10455198318049
C          13.00759632760160   -0.79276006917757  -10.39716101975977
C          13.59332310389818   -1.66171688445065   -9.48712231438921
C          12.93816797683737   -1.95184865716080   -8.30296144681011
C          11.71556140482842   -1.37905612187128   -8.01054007139716
S           4.83363968039274    5.76993991069166   -6.77149901818860
C           3.44595213561975    5.94905514232706   -5.59379575410073
S          13.74672113266120   -0.32265947333792  -11.93569343744240
C          14.92774489128239   -1.66707554826810  -12.30383436170641
C           3.60447043931491    5.03866282325555   -4.39190351757340
C          14.22883676684765   -2.98645354450050  -12.56961572951311
C          16.03154929092310    3.49804091200536    8.89063914417876
C          15.57905280749144    3.87656148106750    7.61593555916331
C          16.51139531436338    4.18490417452471    6.59279706381156
C          17.88286051947158    4.14882464756385    6.78112731124353
C          18.33499297711589    3.79137050431513    8.06223508489411
C          17.40285113845254    3.46695761595080    9.08030429100432
C          14.24134904819517    3.99854525796645    7.16593504723449
C          14.13605253383294    4.33487621525707    5.84682574456056
S          15.70287163611482    4.55443649047057    5.09199150561501
C          19.67068882696000    3.69714291633072    8.52269906302918
C          19.78140981410619    3.26791956786519    9.81278298791657
S          18.21169965029459    2.98656914308612   10.54981107558286
C          15.09514016580101    3.14097409755762    9.96601941065497
C          18.82892981647273    4.44889812927739    5.69633143292676
C          20.97687512005595    3.03106401453530   10.54761997389474
C          21.08515340086901    2.38473221251677   11.76296475089502
C          22.39814974704543    2.28406880236419   12.19618518881510
C          23.32043889670428    2.86950096458774   11.33978460265926
S          22.52260009054436    3.55608637568309    9.95300315335090
C          24.71617100896382    2.89197265284961   11.58769242062267
S          25.29164556922410    1.92994847441451   12.92802383245762
C          26.94277008916567    2.45886488372208   12.71601881628018
C          27.02395640491370    3.35882543056759   11.66089825382434
C          25.77413287952670    3.57188721875636   10.99718028250836
C          28.24198202999164    4.05407896919471   11.28617867284460
C          28.11984481477358    4.90501569012159   10.10764706184974
C          26.88592863681105    5.06080520040991    9.39980790533105
C          25.65568426229977    4.39311359273845    9.80547055952252
C          29.14980685121984    5.61921159165408    9.54823190883685
S          28.60707772613283    6.49756798976465    8.16019323135627
C          26.99160886443990    5.90033518260972    8.31613327267483
C          27.91679232138730    1.89121540396807   13.57482858450362
C          27.65588704239239    0.83275869573532   14.43519543242679
C          28.75660851363773    0.41691047602126   15.16673758249271
S          29.58053554353182    2.38705112732938   13.69968248207915
O          29.28806860201880    3.96035966638469   11.92414732183885
O          24.61198139050491    4.50176070016633    9.16239119639079
C          30.55828906419778    5.74317871989483   10.00357016197506
C          30.67855492114666    6.78979138815653   11.11532698565656
C          25.92936827946295    6.28450546373016    7.35060229943179
C          26.32754400791132    7.43995093996846    6.44366595290468
C          29.88455316650198    1.16994078390652   14.89559152399501
C          19.82739691717341    3.53588872229477    5.36998477412605
C          20.73356134742242    3.82972797109954    4.36728642486716
C          20.65280595000529    5.02334957157047    3.66821269061361
C          19.65215194245268    5.92636697477236    3.98202812222920
C          18.74509708238147    5.64387871876338    4.98749142407097
C          14.11627095905902    2.18039558980273    9.75214867021577
C          13.22745850425296    1.83829559672662   10.76442186013937
C          13.32363734730957    2.45393220494112   12.00477417910745
C          14.29732051010809    3.41476527789695   12.21525093492569
C          15.17947712083857    3.76202556934553   11.21037159012909
S          22.02401122022997    2.65289353284423    3.98134888592153
C          23.38868925672495    3.41022956889292    4.94578900771861
S          12.04680376931715    0.57892757695221   10.37152840477464
C          10.69345838807780    0.83097970723259   11.57273659893650
C          23.07111366145870    3.46499170549192    6.42483549546689
C           9.97619083776410    2.14943962101149   11.35596280620764
C          33.72708292480927   -0.85758233509697   17.37297552306462
C          32.96290005383025    0.06962735787916   16.64469857873106
C          33.50749341939684    1.33369484592582   16.30356439557308
C          34.78411265181809    1.72734081207904   16.67111120965919
C          35.53179290566656    0.81810883019394   17.43954423935017
C          34.99009757051545   -0.45074804096753   17.76937406131398
C          31.63125739068350   -0.07176148706268   16.18470223339490
C          31.17430473184190    1.00524344918930   15.48013684492687
S          32.38026578554485    2.27084543532357   15.35537581331358
C          36.82739778914930    0.99347499548325   17.98482822619760
C          37.28834191834575   -0.09433316269230   18.67135730964031
S          36.12467733514647   -1.40481614990209   18.68810342894702
C          33.20460630230365   -2.19770739576803   17.67224035264276
C          35.34403234754506    3.02913328832795   16.28298879554817
C          38.53877356784533   -0.25071206546401   19.33531082550040
C          39.53168214169284    0.69910493021881   19.49472897018793
C          40.62060261680821    0.20949346346030   20.19829823336612
C          40.49515342216103   -1.11886455826806   20.58572760451086
S          38.97018254165137   -1.76725847852424   20.05519120407345
C          41.48363075013838   -1.82211620937276   21.31911491700813
S          42.89498493575066   -0.92198929342726   21.81824977034345
C          43.62033144633680   -2.30931091467901   22.59473338145929
C          42.79632310026133   -3.41805777112423   22.45780996233290
C          41.58728693017206   -3.14176637799884   21.74184155919034
C          43.11747476568225   -4.74206985149478   22.96712103510503
C          42.12158486577818   -5.76954084793694   22.67488617157661
C          40.90994220434454   -5.48791603184075   21.96684433771526
C          40.57388472342207   -4.15002969240025   21.49371593782982
C          42.22911972010046   -7.08744520645129   23.04505153817666
S          40.85744697158322   -7.99141950043660   22.50185135566176
C          40.12350635081692   -6.59871025383904   21.78480086468701
C          44.88019616696567   -2.10289851049987   23.21964369414304
C          45.53764207842195   -0.88494051520374   23.24361656491764
C          46.75856041462276   -0.91996437485599   23.91929106489656
S          45.81217612245653   -3.31150752427755   24.06144429397577
O          44.14977170886934   -4.99060532917089   23.58331551800949
O          39.50598033401543   -3.90335312307945   20.93697463495392
C          43.33787708546801   -7.77424950742624   23.75696199809996
C          44.46470227012191   -8.13565642473386   22.78464946109947
C          38.79702901213000   -6.70962824622650   21.12483514457157
C          37.67426752049235   -6.30634864053964   22.08514501822084
C          47.03169582734140   -2.16400331059509   24.41043583390223
C          36.59586333328934    3.09519414964673   15.67825312533484
C          37.14329583388015    4.32174749150085   15.34677056803701
C          36.44413341948400    5.49492462292531   15.58755759874046
C          35.19574109484104    5.43024796843110   16.17976763026987
C          34.64777951190287    4.20914273106546   16.52943545879360
C          32.68029803589177   -2.97644611715192   16.64454273852931
C          32.15800264059541   -4.22809736241217   16.91709405419298
C          32.17344486420645   -4.73187286500686   18.20919127441499
C          32.70206883880347   -3.96262069942570   19.23009428380384
C          33.21207199646454   -2.70327419161099   18.96896620747907
S          38.76733872749091    4.36885647465834   14.60835837798058
C          39.66067082834547    5.25539346290465   15.93876256986998
S          31.46498116719738   -5.17849701345159   15.57560833454514
C          29.72929154627473   -5.27093599762022   16.15191076015332
C          39.70137214044323    4.44647009364920   17.22050712151902
C          29.09019576124856   -3.89812662240238   16.22951541916836
H           9.50305255019756   -1.16549451094736  -11.17391442912567
H           7.17409240901156   -0.86627418091065  -12.30510758123207
H           7.63388274737849    2.62729090581669   -5.38889936443494
H          12.08511640720774    1.67034565658018   -3.81443387916393
H          12.26149840292476    2.70798058936817   -1.44984957875319
H           9.63620822962631    4.78092879665936    4.73212023806418
H          11.40333234598697    4.58207360093773    6.60638689346382
H           7.63199676459893    8.68327775284940    3.56517243074554
H           6.46773425829815    7.50829812930976    4.12089679361732
H           5.75781454430190   10.19180698650124    2.81846234759154
H           5.64506704581466    9.81678483974920    4.53959781642831
H           4.58545095327408    9.00141293538019    3.38710721405457
H           4.99034417539778    5.87227383335583   -1.71130905239812
H           6.30152959194073    6.80345856812226   -2.40175530620311
H           3.66827762845134    7.95653460751035   -1.32320956245423
H           4.12459951762540    7.81303746031655   -3.02230252510077
H           4.99507291722445    8.92600247451440   -1.96695222264741
H           6.91344994455703    3.98894556926371   -7.34519914078822
H           2.64870431036730    3.81510801039464   -7.12404259094864
H           2.72026168027308    1.42488884070063   -7.65304393694462
H           4.87216992611620    0.29268671139343   -8.03208563309250
H          11.34870553369441    0.48766552971804  -10.80728713841313
H          14.55508723055733   -2.10925319903269   -9.68145146468371
H          13.39409660508461   -2.63360496756182   -7.60013120002724
H          11.20690421065944   -1.62415619529940   -7.09089338779263
H           2.50770314042452    5.77649228958461   -6.12054974364400
H           3.49176134505236    6.99932452740457   -5.30544424568016
H          15.64506482262786   -1.73518389186846  -11.48667349673668
H          15.44906320517643   -1.31498913549570  -13.19398344201254
H           3.50693094713479    3.99458315033259   -4.68273475619859
H           2.84045656542259    5.26491483196960   -3.65033574797561
H           4.58610094112085    5.17636071246547   -3.94511870919698
H          13.66447119159373   -3.30982922360521  -11.69707820672357
H          14.96280131066210   -3.75245730217127  -12.81279123797183
H          13.54054291018439   -2.88462553487478  -13.40549658027396
H          13.39036249233231    3.82715444996789    7.79870094994552
H          20.53000534492184    3.93428582098118    7.92363834954533
H          20.23742694847140    1.99501662097358   12.29882659364372
H          22.69010823904119    1.80902331998785   13.11671907783822
H          26.68311537915318    0.37745117464717   14.50646304891676
H          28.73117182375941   -0.38794085743066   15.87915921518160
H          31.19092888231247    6.02719482795404    9.16026912157376
H          30.88971771163765    4.78036503438942   10.39707681231364
H          30.30967073409527    7.75551564437673   10.77542470137539
H          31.71861145389110    6.89486243908124   11.41079407921767
H          30.10375659870128    6.47376622694111   11.98158248678362
H          25.02328675049527    6.52841699864976    7.91328775317487
H          25.68238252698216    5.40654994024097    6.74395541016150
H          26.56244491007632    8.32520504256491    7.03067872215433
H          25.51216539167923    7.68141208409866    5.76677487113270
H          27.20188692763079    7.17862294265006    5.85088266298742
H          19.88979585852141    2.59041626434785    5.88731025930479
H          21.36376214094319    5.23486710084027    2.88383670009273
H          19.57973315795175    6.85724279480660    3.43947018494028
H          17.97590945587307    6.35914844419655    5.23794581028108
H          14.05037501090274    1.67285872207706    8.80136931625027
H          12.65840494217635    2.19059617934410   12.81173123257321
H          14.36573587417010    3.89547212441298   13.18003502623423
H          15.92498976364239    4.52340577249369   11.38097580271437
H          23.57634993750293    4.40267912817640    4.53460704381550
H          24.24365634195146    2.76673216215974    4.74225602354080
H          11.09858336073080    0.74001678411518   12.57989818665156
H          10.02669544297388   -0.01173752548224   11.38990479154608
H          22.27278357150815    4.17998113148038    6.61185049659048
H          23.93697724532521    3.77668894371020    7.00317456065561
H          22.75722688408869    2.48674235624626    6.78225655610216
H          10.65518180124469    2.98890910441668   11.49326281137525
H           9.15615834358290    2.24576667655020   12.06498521698638
H           9.57216687533019    2.19510626271660   10.34726355363240
H          31.03427787910646   -0.94551547398079   16.36971804447090
H          37.39356723467220    1.90003437690425   17.87734972437647
H          39.46488085218315    1.70589039800138   19.12337594950312
H          41.49517631539342    0.79345432290395   20.42844243193649
H          45.13417900167865   -0.00074292616173   22.78132565263129
H          47.40240640907332   -0.06647533731569   24.03633703818321
H          42.95849353642652   -8.68051628548363   24.23317026333490
H          43.73775623455026   -7.10394057299271   24.52002309171222
H          44.08988230524240   -8.76422516980247   21.97938046387457
H          45.24918486558288   -8.67142506411715   23.31170199308620
H          44.88947531068975   -7.23010536067402   22.36015147967233
H          38.64258967237811   -7.73682366644115   20.78864610946612
H          38.77267287868717   -6.03923319846631   20.26358490991420
H          37.69629117572270   -6.92193214612488   22.98215937454049
H          36.71161571704484   -6.42971682026272   21.59693797671892
H          37.78784070826453   -5.26287135781441   22.36576589000495
H          47.89794255336647   -2.46670038030510   24.96575040498861
H          37.14130973496059    2.19105870403450   15.45391532575398
H          36.87064265398796    6.44674981579009   15.30833779744263
H          34.64596378719007    6.33989204799667   16.37053730035225
H          33.68253223151940    4.16887744201548   17.01080446043147
H          32.68897810374891   -2.61412443100487   15.62772224854117
H          31.78182885489131   -5.71757890072747   18.41123255872160
H          32.71611211496334   -4.34870940748202   20.23849914363974
H          33.60393325088988   -2.10188511546320   19.77500708509425
H          39.17808175631999    6.22055673549545   16.08979299740289
H          40.66129800544820    5.41242362455002   15.53846147608492
H          29.71575578489939   -5.77403509460239   17.11837225611744
H          29.23099166749556   -5.89798164149658   15.41389402685729
H          38.69441278701093    4.30461065158667   17.61144311023592
H          40.29408193215112    4.96615753492953   17.97124228795058
H          40.14697251652449    3.47101057202022   17.03551778553699
H          29.59102379647550   -3.28878679365363   16.98093182720020
H          28.04038491474416   -3.99081453593786   16.50185422480030
H          29.15916687368704   -3.39405986608476   15.26758465485967
