206
 SCF done       -376.813772663495          0.000267247563
C           0.74031599092785   -2.02912243204006    6.10023685061118
C           0.45886712168919   -2.04529267629416    4.72585122490327
C           0.98187150890467   -2.98324599749428    3.86935026806954
C           1.84064563665558   -3.99513273043525    4.31634450447891
C           2.12007658582325   -3.98038274956344    5.69112753985683
C           1.59614130365485   -3.04307652656568    6.54799420721220
C           0.20710816334765   -1.05915753468137    7.01922243432530
C           2.37860050363415   -4.96042923735256    3.39511917976066
F          -0.35969246146259   -1.11730683892628    4.18597678737553
S           1.91256799302551   -4.90326195854973    1.71463393238883
C           3.56647767638653   -6.71746048706083    2.45562261117059
C           3.26473026468617   -5.99313872065224    3.60784773382727
C          -0.58802374942907    0.04074560247752    6.78781841353394
C          -0.91029020140575    0.75068575329753    7.94415634014370
C          -0.37883545885817    0.21428555003230    9.09886746094620
S           0.55361451758467   -1.20267870217974    8.72318150434179
C          -0.54894653330244    0.72567812758735   10.41699137566328
S          -1.41823379364493    2.22629542601053   10.59554171549997
C          -1.24513907472889    2.17873468210311   12.32257003657209
C          -0.55031856872180    1.05410676335274   12.70645594739865
C          -0.15246187590154    0.22772262873478   11.64822009224944
C           0.64169253896682   -1.01830175072614   11.88111834524019
C           2.14157207151294   -0.73984595497125   11.76464983800264
C          -1.77841224708088    3.19393892176671   13.17979829471408
C          -1.66428341157703    3.12767667739079   14.59180509747430
C          -2.19937009172088    4.13321617006764   15.45243509189994
C          -2.88042199219078    5.27574437615881   14.96056243807380
C          -2.97197212903488    5.31153329993464   13.57672482511016
C          -2.45035912994284    4.32235082808139   12.73134114741237
N          -1.09608540854371    2.19917598505468   15.37321593470244
N          -1.28876975666835    2.63152546894592   16.58781086461908
N          -1.92747416398922    3.76072015375875   16.71104815120910
C          -0.77992213194329    1.92473599060371   17.72844396741693
F          -2.62861139093042    4.50859328241043   11.40861173197419
F          -3.59452516425199    6.34370926653989   12.97453523851794
C          -3.41396929047130    6.28080431794000   15.83383057398978
C          -3.36079519178289    6.29334655732707   17.20683010242796
C          -3.97609626064630    7.42036468915296   17.78560404020775
C          -4.49443500542411    8.25422795758184   16.83716767718174
S          -4.24355617709552    7.69287789138030   15.23948271272076
C          -4.08539916360422    7.63877187239335   19.26219231755315
C           2.91995644368852   -6.26465842335399    1.32347196147536
C          -5.20075058799652    6.77606202694319   19.85446880104772
C           0.63877138874690    2.38433742995140   18.05108664644816
F           2.93317807381903   -4.91242661566941    6.23215620924567
C          11.73380511406206  -16.39355050002643   -8.88859535660329
C          12.64422665329544  -17.38479061601026   -8.49333748182297
C          13.58812909528124  -17.91031414869025   -9.34242557082675
C          13.70136913721599  -17.48664839752039  -10.67232482238899
C          12.76253879880704  -16.52669225430881  -11.07901281096859
C          11.82055661402715  -15.99992749412786  -10.22955134209474
C          10.78426043520627  -15.77157248101902   -8.00419282569708
C          14.74256903395954  -17.99896818733119  -11.52291303911769
F          12.62501700635791  -17.86146236435991   -7.23050075652077
S          15.78298004390758  -19.27822694217970  -10.95207670103776
C          16.23152902490179  -18.29146622533967  -13.27681325664085
C          15.12464166201727  -17.60176942691781  -12.78498249374423
C          10.62868770326749  -15.88990574958401   -6.64144654304581
C           9.63037003597141  -15.06668858644704   -6.11949771735831
C           8.98236289839455  -14.30248992442143   -7.06724189826767
S           9.63958698492524  -14.62164748310834   -8.64317164023496
C           7.96194613588748  -13.33892388468042   -6.82384877577441
S           7.66567550023407  -12.87055315600910   -5.17147443003569
C           6.44297164943619  -11.73765764279567   -5.66106660073689
C           6.28410500298938  -11.76103604210184   -7.02871218583653
C           7.13054086270559  -12.65457125988576   -7.69609408456881
C           7.11361211868187  -12.78750759915941   -9.18602098425258
C           8.07657347037573  -11.79119955891029   -9.83467735138264
C           5.75396473918319  -10.89541155989471   -4.73222305757524
C           4.79788073317046   -9.93420895165894   -5.14981164057875
C           4.14392055578228   -9.05539977058009   -4.23489687869587
C           4.40241326234317   -9.07605781154316   -2.84006863276143
C           5.32645272984314  -10.04222768217326   -2.46222171889134
C           5.96672545282305  -10.90556369037597   -3.35953392053992
N           4.33343706548293   -9.64770318417192   -6.37368314009661
N           3.47784485392874   -8.68320723830536   -6.18196619937508
N           3.31706002799609   -8.28239559733323   -4.95206908924766
C           2.78796178039697   -8.05773704837395   -7.27382118653193
F           6.84480332991781  -11.77998454057902   -2.83009648845462
F           5.65515784935617  -10.17423213273443   -1.16198591249979
C           3.77684793844650   -8.16146888228855   -1.93583460984628
C           2.85464332744978   -7.18908817968457   -2.25875832020534
C           2.43246570086345   -6.41121510931254   -1.17610529690617
C           3.04577190935345   -6.79461605669286    0.01036220206812
S           4.13645926086533   -8.12821895105880   -0.23748331112827
C           1.44150634588457   -5.29282476200179   -1.26987347238083
C          16.72772093366111  -19.24432571483721  -12.41094356721900
C           0.88431681613577   -5.07333741935990   -2.67058994096735
C           3.60807961294913   -6.89506245961427   -7.82506239588347
F          12.75676182965671  -16.07325373734256  -12.35044256468214
C          30.79613453966939  -21.61585407996361  -21.51112937575570
C          31.17468809809171  -20.83568684281385  -22.61346099059810
C          32.38185340538676  -20.98658171644201  -23.25363134523024
C          33.32063240511571  -21.93893526155824  -22.84315112830516
C          32.94191204153591  -22.72012031906017  -21.74283439726234
C          31.73538203198925  -22.56952265538220  -21.10174631915949
C          29.54336038028305  -21.47493783607713  -20.81620299145893
C          34.58273384770673  -22.07363185713957  -23.53105602836267
F          30.34476990549386  -19.88654706912485  -23.09427899138290
S          34.96465130511836  -21.00749632218942  -24.86065650733633
C          36.69381443582864  -22.77117591662900  -24.20038985075677
C          35.61522697583239  -22.95074026702250  -23.31494495474186
C          28.49622638834289  -20.60920619979080  -21.03724292533486
C          27.44055690648124  -20.76827754688712  -20.13950851886123
C          27.64281518917585  -21.76362020290776  -19.20582873526279
S          29.19026465511672  -22.51153742090350  -19.45843315154920
C          26.74495958806477  -22.13367330214216  -18.16431690639511
S          25.28787247092587  -21.19476869248383  -17.98148117410828
C          24.77873037891979  -22.15645329581401  -16.62790260984773
C          25.70088303459233  -23.14487190160428  -16.36509910499021
C          26.80904511542460  -23.14728616770519  -17.22061380683683
C          27.92372574948429  -24.13165148226005  -17.05887707930523
C          29.03548166022345  -23.55967319988675  -16.17712329118993
C          23.56833831816711  -21.89782799858807  -15.91038011267841
C          23.19010578907626  -22.64898874627838  -14.76804035210406
C          22.00359368829785  -22.37003525598787  -14.02518943833245
C          21.11094913416963  -21.32518321932493  -14.37719356317184
C          21.49810815090754  -20.62529319028940  -15.51317591482017
C          22.66514063331220  -20.89464530161926  -16.23807355639694
N          23.79345785745716  -23.68745838501564  -14.17379519633023
N          23.01713962170341  -23.98702499154622  -13.17038395586538
N          21.94972787342571  -23.25413926886252  -13.01978578163039
C          23.34493674183278  -25.03835893977145  -12.25029089591627
F          22.90156780184081  -20.11148387893882  -17.30878556251770
F          20.73195522193530  -19.61213753023296  -15.96310745700804
C          19.94516410503492  -21.02389562073756  -13.60535686609455
C          19.55034469200188  -21.63786949933220  -12.43585338267195
C          18.38561699958023  -21.10818905546929  -11.87085149802425
C          17.86748322113957  -20.06606695161118  -12.62917971527041
S          18.83894619488730  -19.75840196624578  -14.03967327876148
C          17.75957744162265  -21.59321744959618  -10.60009635834054
C          36.48586295663840  -21.76219067422480  -25.08643561066543
C          18.43434598752989  -22.82387772109417  -10.00774602367039
C          24.17399351723776  -24.49343542582171  -11.09109682612588
F          33.77138138260176  -23.66956638321982  -21.26003414125081
H           0.71681966679124   -2.92832425198157    2.82465122204046
H           1.86012336489355   -3.09910972158445    7.59291675776724
H           4.24165415590370   -7.55464392534835    2.43579374333341
H           3.69144515819842   -6.22369409873929    4.56548318776882
H          -0.93003514216485    0.33442848426532    5.81355744416028
H          -1.52127509043946    1.63604304390772    7.94926993443188
H          -0.34264320660199    0.84181393322544   13.73884727971092
H           0.35652222744777   -1.79166776560522   11.16592896656494
H           0.42244026970002   -1.38715683821637   12.88501195062772
H           2.38671306199314   -0.37416031439408   10.77072959088198
H           2.70871634834303   -1.64891045274799   11.94755466989593
H           2.44141795289622    0.01158674588387   12.49167582781362
H          -0.79204427264462    0.85999579739531   17.48831289569695
H          -1.44867953934280    2.12873848204338   18.56654752003947
H          -2.88669324221637    5.51022532300103   17.76823061708834
H          -5.01294570005181    9.18033022122458   16.99134037334897
H          -4.29239390018104    8.69151265900979   19.46286046032788
H          -3.13657866874489    7.37846195594228   19.73637011748381
H          -6.15733008695453    7.03705108666897   19.40740811005406
H          -5.26747659476453    6.92649401916956   20.92940336950648
H          -5.00827829852888    5.72335913302645   19.66100127128279
H           1.29578629041485    2.19490892390071   17.20589718922423
H           1.01401262770964    1.84418810557873   18.91539951483930
H           0.64744405535807    3.44899866122720   18.27103777677047
H          14.26366267371170  -18.65995822708659   -8.95990527386319
H          11.14265629884509  -15.25380988494889  -10.61476640636421
H          16.67150155528733  -18.10566246843386  -14.24062245844505
H          14.63150981972669  -16.82669377749167  -13.34020503331228
H          11.22349733719487  -16.54088068604801   -6.02903564086885
H           9.37964676488166  -15.02148594661004   -5.07438822452110
H           5.56699256446924  -11.13488878138192   -7.52642065389536
H           6.10028573882405  -12.58809626660015   -9.54066320287809
H           7.38337874320736  -13.80264430738861   -9.48151276720058
H           7.79751084514738  -10.77338912709961   -9.57181387101548
H           8.05064711389383  -11.89275219768008  -10.91655976396041
H           9.09432021172629  -11.96743263877266   -9.49573698719871
H           1.82736024942430   -7.70345749735276   -6.89565736158938
H           2.63284726290691   -8.81573789687334   -8.04367942737080
H           2.51392405317409   -7.06527327754103   -3.26824689673832
H           1.91908015081203   -4.37008158405501   -0.92418836376715
H           0.61488548701270   -5.49662031092191   -0.58147213511007
H           1.67976300088877   -4.82020489830217   -3.36722821016791
H           0.16971981008559   -4.25370009171975   -2.65471144649909
H           0.37474774929639   -5.96514833378094   -3.02717322761127
H           3.77682027628344   -6.15328979924197   -7.04834740935148
H           3.07692434703908   -6.42638104768219   -8.64830594634922
H           4.56991894129455   -7.25167188244157   -8.18505052876271
H          32.59894540484138  -20.34631322315493  -24.09467793528367
H          31.51903013769188  -23.20901048744480  -20.25977643392116
H          37.58721257359882  -23.36903885860859  -24.17705299891179
H          35.61173416043589  -23.70467093199229  -22.55107006133866
H          28.48445975818256  -19.87583167735110  -21.82103833790301
H          26.54366008464691  -20.17483571704290  -20.16293532016531
H          25.56409577718803  -23.84822273251938  -15.56467080005731
H          28.33322587015219  -24.40677545315395  -18.03229179282156
H          27.52454324037864  -25.03398968773122  -16.59155038136857
H          29.44961442045242  -22.65751980573154  -16.62008967013934
H          29.83578497034921  -24.28611062819896  -16.06200005921669
H          28.64398648472891  -23.31162556195876  -15.19318421519250
H          23.90734299903610  -25.79385695717609  -12.80178261044107
H          22.40696821373875  -25.46020972776503  -11.88456352599181
H          20.11659226873939  -22.44817731883555  -12.01939841289563
H          16.70501626719457  -21.81686084119208  -10.79014039317488
H          17.78199786940339  -20.78132488845428   -9.86548953973136
H          37.13512830670974  -21.41114209737913  -25.86384210428645
H          18.41810329650401  -23.64936949645409  -10.71523689456200
H          17.90690765769127  -23.13221987621388   -9.10809068865811
H          19.46633316268211  -22.60902878582604   -9.74167886880251
H          25.09880968787512  -24.05896313682461  -11.46241586076009
H          24.41577248636131  -25.29654722603674  -10.40112580586047
H          23.61571622136141  -23.72819410503717  -10.55759452786090
