308
 SCF done       -498.734734894330          0.000758864380
C          -2.38867111353184    0.67399235865307    2.91157439951811
C          -2.04756800070491    1.81072248641737    2.14034947393656
C          -0.81475492529267    2.44289017318592    2.21737052594249
C           0.09475534062234    1.92578443157284    3.15302897182846
C          -0.25742792760168    0.80207285756071    3.94063877928896
C          -1.47158794643917    0.14312314130236    3.82919728905032
C          -3.71085496778631    0.21888562714797    2.62586295937720
C          -4.32470688069577    0.95318844272500    1.67742451338798
S          -3.35354428712827    2.25161291748966    1.06775216937066
C           1.39995573345565    2.39373547505419    3.45290850133124
C           2.04236375984201    1.65520153212936    4.40122511538011
S           1.04748633159082    0.33928625323789    5.00381734531050
C          -0.46627352937287    3.58068338402874    1.35466642146536
C          -1.76388606006061   -1.06505288983130    4.61555588511630
C           3.36575121786073    1.82761676977287    4.89554612950168
C           4.01011615223518    1.10222871486684    5.87129189663884
C           5.32651456805452    1.50857300913719    6.08397406439005
C           5.72165272652056    2.55251369153991    5.27351279650024
S           4.41506132003613    3.04651653343715    4.23178714254174
C          -1.33956500665787    4.66324519465842    1.25422435827403
C          -1.01979543324565    5.72804043107981    0.42671527191653
C           0.18019885585501    5.72513762256668   -0.28832996346501
C           1.04942150858644    4.65163455765676   -0.18418024381579
C           0.71638417281910    3.57191957755350    0.63584560659244
C          -1.58533018672554   -1.04401144731127    5.99817932034850
C          -1.82198249000604   -2.19232798394237    6.73723870172683
C          -2.24704506387035   -3.36045557604865    6.10027383213249
C          -2.42645706771281   -3.37916722761357    4.72679637574649
C          -2.18069803555838   -2.22288647208674    3.98349079769759
O          -1.67285445158812   -2.29268052702518    8.08422197964399
C          -1.17033046145675   -1.18055995001083    8.79913621146153
C          -1.01386982710125   -1.59867637021758   10.25280148051828
O          -2.83050180120172   -4.46130350328434    4.01265826151893
C          -3.06490027461344   -5.67994177129824    4.69056269189702
C          -3.46784852580804   -6.71586280899541    3.65279353089393
O          -1.79773372823086    6.82659173669988    0.24107246172419
C          -3.06548190890013    6.87771068257937    0.86633745009513
C          -3.75175345528786    8.15719466336274    0.41431470665320
O           2.23876539411046    4.55008919602979   -0.83142448146707
C           2.66026638406492    5.61443534361998   -1.66143223920010
C           4.02866004535788    5.25160529880710   -2.21684030181976
C           7.01127743466017    3.14637188765946    5.23339359731039
S           8.27960882365907    2.54299053434324    6.26627020312925
C           9.35810935247740    3.71657588908077    5.53141740766503
N           8.79798147535084    4.46300021098086    4.63068511914835
C           7.50407045525646    4.17832327786080    4.43976320703103
C           6.71420834962902    4.94466064902552    3.43012742805301
C           7.54661137040288    6.02951317137074    2.75969032609799
C          10.71730760327602    3.75190909932209    5.91437974829469
N          11.23682800031493    2.97211606039510    6.81248866183942
C          12.55188608299991    3.14983281605221    6.97376175197475
C          13.11064689445563    4.12790220484952    6.15483816747477
S          11.86793792894290    4.83845692095212    5.15738359343031
C          13.29179759818764    2.31596410178349    7.96758226568748
C          12.36493432195951    1.36642152707125    8.71533673360201
C          14.46492964154679    4.53507761386794    6.02395651948522
S          15.74687926782466    3.79870922048636    6.94442286992058
C          16.94639458711156    4.76909539521007    6.13984685153819
C          16.36080675758186    5.61714767810166    5.22825051407900
C          14.97276351482776    5.48809351002655    5.16533431366663
C          20.24978060521023    3.64044395789617    7.35955514570792
C          20.82126305700483    4.53098377788622    6.41664943388233
C          22.18616935545922    4.63577600278820    6.20109036737724
C          23.01109110588584    3.82280365533647    6.99775656820586
C          22.43688239545085    2.95003294917139    7.95625077780903
C          21.07195014665906    2.82129643926346    8.15031148871456
C          18.83595885031775    3.70201448446238    7.35749601578166
C          18.32333021744352    4.56372145269056    6.43296631857502
S          19.58252240782225    5.39479937908416    5.53557842601264
C          24.42587471163792    3.73277724119662    6.98285377438820
C          24.92628813238211    2.81516043267048    7.85904519356122
S          23.66163561892674    2.02744073520164    8.78822791434674
C          22.74371919735264    5.53281444109967    5.17866701914944
C          20.50583566335622    1.86308833063248    9.11043361122001
C          26.28229230751703    2.43629428256027    8.06204144917317
C          26.77756751079395    1.53421002735249    8.97632152393865
C          28.15650208386788    1.35623442973581    8.88653282892060
C          28.74915647703711    2.11332224951774    7.89719247779950
S          27.55838120010491    3.07942406463066    7.06931354631854
C          22.33864658948384    6.86690755596159    5.14439855225428
C          22.84964980920861    7.71426447598757    4.17400606650854
C          23.77852567135449    7.23780649811242    3.24588583717443
C          24.18209494661042    5.91316930285924    3.28227108066242
C          23.65274800727499    5.05724094322408    4.25013431650350
C          20.98691335852030    1.83505166616643   10.41901422718504
C          20.46242176628066    0.92514352608193   11.32356675370936
C          19.44002389915122    0.05729714442353   10.93267362186398
C          18.95958758172608    0.08899991555900    9.63379057649665
C          19.50761580283735    0.98869986735195    8.71767030225317
O          20.86407242944195    0.79735044465917   12.61522119604668
C          21.94800502365941    1.58240025517192   13.07299369015494
C          22.25013111790015    1.16327885674538   14.50315126740778
O          17.96687845405432   -0.70268187281019    9.15311276484469
C          17.33196453065036   -1.61419274842256   10.02785938176458
C          16.23196267719876   -2.31378316226245    9.24469189117572
O          22.52052750414996    9.02546815937423    4.03782940827549
C          21.53377987661866    9.57316939344522    4.89049164556443
C          21.29962451403660   11.01284716898025    4.46054340603918
O          25.07840475719708    5.35146209022565    2.43113114517736
C          25.67591787961069    6.15810456216556    1.43521278928288
C          26.65333475805404    5.28713799684029    0.66150816718859
C          30.12799229806877    2.11657463777484    7.55644331324506
S          31.24671864197523    1.12575773133275    8.45395167835429
C          32.52078458491024    1.70641640886662    7.39692425930196
N          32.12057195349255    2.54499501011792    6.49190687908506
C          30.80696512407888    2.79606380702778    6.54914032860834
C          30.18464542566090    3.73932183458505    5.57273569678529
C          31.20496894746388    4.29547981882025    4.58847784726562
C          33.84470933500618    1.24517521948101    7.57448100390229
N          34.20771790066205    0.40618292001524    8.49498426828873
C          35.51370847253197    0.11131578373470    8.46260011389015
C          36.22910633468225    0.75078286853756    7.45675846386792
S          35.15260805632889    1.76737346836633    6.52988363959982
C          36.04300804036908   -0.82899353878795    9.49392611277363
C          36.59771837734581   -0.06902336517010   10.70008479217295
C          37.60568730710616    0.67537673309419    7.10630168199156
S          38.77879585597152   -0.19567550798290    8.05014129245779
C          40.05833501785716    0.23581671465674    6.95842096136167
C          39.57979797501675    1.01195273449086    5.92560609687689
C          38.21008065023283    1.26024098048108    6.01227578930988
C          43.67521958101250   -0.59531591795963    6.96996328586385
C          43.43997091859324   -1.19056382930332    8.23492333051601
C          44.43482788763524   -1.77219717046202    9.00407130326372
C          45.72551490287447   -1.78365692627190    8.45055852893985
C          45.95834878108301   -1.20947392175120    7.17554604363482
C          44.96922132343364   -0.59860291841294    6.42195210414627
C          42.49017444682403   -0.05867313226480    6.40628146940841
C          41.39182212017545   -0.20218926600466    7.20423095820044
S          41.76718028003199   -1.03626865158630    8.70099954713779
C          46.90915470770251   -2.31952767124666    9.01401647391626
C          48.01691365775536   -2.14053413974319    8.23884934975419
S          47.64430808549681   -1.32150521521885    6.73134844034079
C          44.15793598104166   -2.32868361135746   10.33595163865573
C          45.26370171334156    0.02824915766008    5.12514793945400
C          49.35458634006235   -2.51186062214708    8.54968004640265
C          50.49192255026603   -2.35485631207983    7.79096995121155
C          51.64937740531905   -2.79574363622484    8.43199804384160
C          51.42526435572928   -3.29740921404592    9.69737855813128
S          49.72966119462029   -3.22681157424060   10.09082938465726
C          43.08407560610488   -3.20258078282230   10.50410678831739
C          42.80084279030021   -3.70892048059373   11.76279630574210
C          43.60472092523504   -3.36711037132834   12.85280284914808
C          44.67590848323791   -2.50516990683295   12.68371534082445
C          44.94277161588418   -1.97547261037073   11.41970574258873
C          45.95855989035438   -0.69669289232610    4.15750738522980
C          46.26172910796781   -0.10379329485673    2.94202829759207
C          45.86016631807298    1.20889167145535    2.68338959972981
C          45.16696555733031    1.92695553894001    3.64398975610248
C          44.87343753916385    1.33142848080389    4.87243883605914
O          46.94079151853789   -0.70790631265605    1.93234516558519
C          47.44564963983262   -2.01364227230075    2.13531509395278
C          48.23232832830293   -2.40294209108183    0.89357965466492
O          44.73163001656575    3.20441788405036    3.49315110156219
C          45.00700622355491    3.88343857849387    2.28355003584923
C          44.41895547971937    5.28138062559637    2.39490746533954
O          41.77035232328353   -4.54746651657148   12.04590717794046
C          40.84582030515377   -4.86095165566297   11.02165694702736
C          39.73852907765091   -5.69988636416511   11.64008102680029
O          45.51959144534157   -2.11239672207579   13.67234346753960
C          45.32644271010746   -2.61730631611784   14.97895879802650
C          46.42500313152713   -2.04499846013323   15.86109869169164
C          52.40115382052117   -3.79315227702850   10.60265976020461
S          54.08867747996881   -3.80008644554842   10.16219821212061
C          54.44023945340236   -4.47647383369796   11.74247774957665
N          53.39289112845704   -4.66552055907049   12.48400819140536
C          52.25081912068711   -4.30052949375932   11.89027097102154
C          50.95534679632599   -4.45243688012949   12.61760152016469
C          51.14721724384137   -5.05247919247428   14.00415131765068
C          55.76932211744400   -4.76224010631655   12.12975823536768
N          56.81868045418231   -4.56544436450858   11.39434109671209
C          57.96219727197953   -4.90962440523494   12.00098152698434
C          57.80902603522736   -5.40713035421234   13.28956801696854
S          56.11897632360977   -5.42515261556573   13.71629158420112
C          59.26096020604044   -4.73940096705807   11.28304311928114
C          59.06738211034410   -4.16234141215742    9.88697602231400
C          58.78693686039200   -5.86066668131892   14.22104226294418
S          60.49320663937417   -5.87916999568958   13.86729870310167
C          60.84911323827907   -6.51595828590192   15.42157772257374
C          59.72902271532560   -6.70431770055065   16.16907766348963
C          58.55638480970618   -6.33375213799907   15.49094443271259
H          -4.16443694860763   -0.61695114775075    3.12641256868334
H          -5.31357499323939    0.82681767169439    1.28155743592953
H           1.84571640221383    3.25357223038958    2.98586009983108
H           3.53168295882705    0.29889969303030    6.40289757629704
H           5.98847630479537    1.05751115419714    6.80172046303757
H          -2.24318343591460    4.66242943460827    1.84064197613399
H           0.38568343527751    6.57750197494067   -0.91400210472435
H           1.38690431438677    2.72891396308635    0.67555313418053
H          -1.28218646088275   -0.12512805291043    6.47201309472954
H          -2.41870973798354   -4.22618164191320    6.71771239347903
H          -2.29578133893227   -2.26188509594042    2.91233984883055
H          -1.86833749011920   -0.33517181797961    8.72109377071274
H          -0.20043518738281   -0.87418327594408    8.38380839782134
H          -1.97465057040153   -1.90732292080536   10.65552360910414
H          -0.63134509308250   -0.76705001772031   10.83756785594292
H          -0.32363625681513   -2.43459014096694   10.32577513544514
H          -3.86706276416686   -5.55133240954357    5.43061256197022
H          -2.15343126746590   -6.00063089799235    5.21355562483473
H          -4.36630884895882   -6.39200920969585    3.13473499944519
H          -3.65791984376875   -7.66973614928846    4.13648879640550
H          -2.67266211225805   -6.83710723716014    2.92243301394349
H          -2.94738136975866    6.87721993415294    1.95905288885494
H          -3.66232024049713    6.00179626717887    0.57721099517623
H          -3.15264041931598    9.01886412646088    0.69576924510289
H          -4.73080103042530    8.23530666535721    0.87823826140007
H          -3.86725725704236    8.15414723128545   -0.66600399948461
H           2.72090041146848    6.54427198499166   -1.07901889024105
H           1.94314658080297    5.76013736057706   -2.48105772494636
H           4.73268227731938    5.10609765965907   -1.40211975168822
H           4.38881764897833    6.04673661687411   -2.86334964209882
H           3.96419481394894    4.32872808662545   -2.78650341762435
H           5.84413516642515    5.38959926394593    3.92316284585761
H           6.33176433066099    4.24787383132502    2.67726698996169
H           7.91853067666336    6.73092126657568    3.50115113196061
H           6.94286031972666    6.56796589436086    2.03344805383717
H           8.40151025349060    5.58930677202886    2.25452488525351
H          13.80362790803361    2.97521091434438    8.67562296922382
H          14.06646183009669    1.74560392561186    7.44494539974600
H          11.60022132230974    1.92632044660401    9.24611519166363
H          12.93328787569581    0.77676783106677    9.43037380164426
H          11.86872906019698    0.69787990567102    8.01773530609038
H          16.93291325571865    6.29886695937020    4.62418853324461
H          14.34331851875852    6.06060956294738    4.50728662685770
H          18.21459606476695    3.12461481967457    8.01808091468405
H          25.05426252337441    4.32963078120292    6.34648685370410
H          26.14606717695438    1.02164833902450    9.68010147833530
H          28.72099273151014    0.69018612768186    9.51454701244313
H          21.64750696198767    7.22260732531131    5.89037966077945
H          24.15052290935611    7.93608357594836    2.51499491811882
H          23.94967703550624    4.02114683593776    4.23985802001922
H          21.74708666559703    2.53993179347879   10.71199997740689
H          19.05918897918390   -0.62529410655011   11.67378281088153
H          19.15040460407775    0.96949294478980    7.70095410082775
H          21.68267210556403    2.64841326494233   13.03874292134145
H          22.82642845861078    1.41884788074352   12.43371152727609
H          21.37523297879348    1.31968914856249   15.12814901318989
H          23.07763749633802    1.74902005249583   14.89303699135651
H          22.51263505883816    0.10938644262346   14.53305746776048
H          16.90440981426048   -1.07670966999392   10.88565045976413
H          18.05969269392818   -2.34790546318431   10.40123620175564
H          15.51753701415243   -1.58304891225792    8.87544515058671
H          15.71762565756923   -3.02585425933967    9.88366855871727
H          16.65899841475302   -2.83898611210380    8.39490187738559
H          21.87691758448856    9.54071374936369    5.93411855117036
H          20.60354585394051    8.99431261930780    4.80879677462474
H          22.22456282863405   11.57784806687693    4.53686461848177
H          20.54727458123253   11.47080890062557    5.09624848315190
H          20.96116934708733   11.04122704952534    3.42849632399682
H          26.20496942646731    7.00097999676139    1.90119360209002
H          24.90546300612410    6.55711512363997    0.76108859953956
H          27.41014993049814    4.89225631329709    1.33374513123588
H          27.13558533807761    5.87257083515434   -0.11607211866842
H          26.12635457284996    4.45304276334297    0.20660107596513
H          29.71025806167206    4.55770790210710    6.12369109881424
H          29.38907620281480    3.21629296170473    5.03247620436737
H          31.98959353048152    4.82661682062861    5.11965176099118
H          30.72089657606736    4.97815222454773    3.89458304175240
H          31.66597024891775    3.48731097554750    4.02782457765914
H          36.82021540384297   -1.46337997696507    9.06433848435217
H          35.21263860201345   -1.45836456310285    9.81696971121466
H          37.41811572279848    0.58005450907564   10.40399589678488
H          36.96473114330048   -0.77003552264650   11.44498799349392
H          35.81559272933846    0.53988428488912   11.14671151058371
H          40.20674485913423    1.39374526585591    5.14073613962401
H          37.66002852542209    1.84987810111295    5.30024419245764
H          42.45998099629691    0.40337871504810    5.43703489920609
H          46.94108214439906   -2.82499728500471    9.96241248896592
H          50.47227899799520   -1.92651764643826    6.80454775424042
H          52.63290057198695   -2.75083776322779    7.99890359404818
H          42.50185905060927   -3.48869746768415    9.64413680137608
H          43.34969315692440   -3.79229938151269   13.80901990458479
H          45.75309993152516   -1.27229444450418   11.31686012583880
H          46.23177683002714   -1.71777278915188    4.36582858772914
H          46.11618265587474    1.62469787819330    1.72334196864754
H          44.36437151752278    1.91584238855522    5.62170763937330
H          46.61690815599951   -2.71768125494051    2.29486951655939
H          48.09645507574418   -2.03131250208637    3.02028691298750
H          47.58532440269460   -2.37709495319157    0.02107446689847
H          48.63523450264663   -3.40488039428684    1.01047581713858
H          49.05008117478376   -1.70454652909741    0.73863862072164
H          44.55365094777707    3.34660835295965    1.43860190272128
H          46.09228124870708    3.93890798232481    2.12206799674388
H          43.34654849791148    5.22091032519893    2.55877311084054
H          44.61029990346539    5.83722175839830    1.48151802227643
H          44.86747925149433    5.80610444421979    3.23390149081457
H          41.34598824883325   -5.42506212192655   10.22192270362090
H          40.43167077208178   -3.93736070070760   10.59446349115543
H          40.15544888248094   -6.60730356485818   12.06830828901868
H          39.00826502698926   -5.96521611357545   10.88104735945192
H          39.24571074116284   -5.13939947214978   12.42964902030983
H          45.37959389740948   -3.71484327168212   14.96997511147559
H          44.33935456120792   -2.31705679711371   15.35677616467759
H          47.39841391499107   -2.34299967399170   15.48123210820931
H          46.31091106556737   -2.40920696614334   16.87806538763801
H          46.37187235213275   -0.95984401546678   15.86154869449444
H          50.28729511649226   -5.08535822536006   12.02487490593901
H          50.47671621042449   -3.47117672285501   12.69800360694339
H          51.61067939154827   -6.03207291288599   13.92972286835541
H          50.18668190225020   -5.15134274301879   14.50366653614038
H          51.79512376358922   -4.41831602901426   14.60241722926091
H          59.76221298650792   -5.71048218985154   11.22037371830664
H          59.90884709510211   -4.08284935790781   11.87245284136642
H          58.43492048461827   -4.81654885872023    9.29380727171912
H          60.02892661515322   -4.05296183147103    9.39177587642576
H          58.58551686765666   -3.19057173337615    9.94502743275670
H          61.86936011933520   -6.71138685849635   15.68489941986790
H          59.74078767665009   -7.09468454865144   17.17081841664169
H          57.56854087075276   -6.40616797372516   15.90974671420386
