254
 SCF done       -460.334924716269          0.000833458202
C           7.33265097417800    6.36720903835245   -7.56508572663680
C           6.42684889792188    7.30392236810146   -8.09461418591483
C           5.84712543257010    8.28944983150477   -7.26190949004372
C           6.11992708207132    8.39793239562152   -5.90185943086988
C           6.99344418945692    7.43062842614169   -5.36547341526260
C           7.57491655586970    6.44282624919539   -6.19829884393446
C           5.96150449399927    7.41252895524715   -9.43865131080080
C           5.10546776695527    8.43794189481451   -9.61875414026118
S           4.79360261296672    9.33872385041081   -8.17506370267122
C           7.39307242439541    7.27542557263537   -4.01976378755833
C           8.27120996929333    6.24889409443215   -3.81913905288333
S           8.63784891123137    5.39188811215862   -5.29958573350157
C           7.98611674733124    5.38757986840629   -8.41205946576770
C           5.54320692228820    9.44353973230028   -5.08224246032664
C           8.56904419692273    5.58000484263928   -9.63220206946824
C           9.12522417115687    4.40405845044775  -10.17486574024788
C           8.95947491466619    3.31136604438566   -9.38111565749524
S           8.11813725649936    3.72239563990908   -7.92330735980853
C           4.27283134258865    9.94817525616167   -5.11605836475413
C           4.04570163624075   10.95390767555465   -4.15603571483406
C           5.14074701295924   11.23986748229948   -3.39927175425193
S           6.48807149500736   10.26051792226962   -3.86614345630169
C           9.43516888167352    1.91737527799759   -9.60497708043540
C          10.61977744349825    1.58621435210395   -8.69488273027416
C           5.27134340775519   12.18537704996636   -2.25544519069025
C           5.35813777577054   11.43209258056269   -0.92500439513802
C           8.83194006715207    5.90116221146860   -2.55931608885063
S           8.46343096951063    6.85635791896172   -1.16022278929007
C           9.44606171254235    5.84689461022948   -0.13047669485501
C          10.03222024054039    4.83297166811093   -0.87065293382596
C           9.68934570854804    4.87355852019821   -2.21596636167264
C           9.59757216566023    6.02795494200555    1.27922894442706
C          10.38434994473187    5.10460943664441    2.03702126780922
C          10.55134194628953    5.19279496382931    3.45232780649296
C           9.95150910257621    6.21787851625011    4.25100482498400
C           9.21745253339324    7.11887762983342    3.48640359848496
C           9.04734669091170    7.02903652259404    2.07421361997112
C           8.48929260530231    8.31212753725670    3.93814644142860
N           7.93605291547496    8.88376171202994    2.81176607507243
C           8.21800103906555    8.17108658346591    1.66512567756568
C           7.12427468089783   10.08100622575455    2.82716116643385
C           5.63915662566091    9.74379749099037    2.76751951164986
O           7.82447603264073    8.50441716551268    0.56693716749605
O           8.36101068599445    8.77612677011943    5.05166022194686
N          11.07873813831004    4.03678606352743    1.62664383410485
N          11.60595450025290    3.54339521388736    2.70913102039062
N          11.33778683729587    4.17296752612178    3.81620728795378
C          12.47801760391480    2.40432134532591    2.67790616954441
C          13.92883268022933    2.85200405477671    2.52696047159189
C          10.14159335143359    6.22038318014482    5.66804447451069
S           9.48809461670013    7.40605634738789    6.77375128772771
C          10.18727823498721    6.60636138754719    8.14487580611121
C          10.88245730860827    5.48472236389039    7.73138198278803
C          10.86505530278651    5.26459707184663    6.36215969296969
F          10.15428345777190    3.97822622850329   -3.10321233096389
F          11.53023557040483    4.66873421545765    8.58000605682163
C           8.75026537459821    9.53926878857390   11.93027169976248
C           9.34536524825590    8.46805152067264   11.22889184808515
C          10.03775588645144    7.44806056190675   11.93011851605654
C          10.17756652463051    7.43381211171093   13.31228089688153
C           9.63636649825590    8.53772525270768   14.00255879127412
C           8.94347345937130    9.56013910742337   13.30655552712537
C           9.36430535281661    8.24717743291731    9.83262556859394
C          10.01001430308954    7.09856489673879    9.46689430522034
S          10.64477996181951    6.22764769213762   10.84759870864457
C           9.69591583151405    8.79766414281054   15.38692382418555
C           9.05133454033413    9.94234127729313   15.76420075813800
S           8.34618155045548   10.78204814824823   14.40162333843907
C           7.96132904746566   10.53818267845222   11.24034593277791
C          10.82776916865648    6.34344221846094   14.00930056214750
C           7.05333620970963   10.35028436572995   10.23511757353991
C           6.44435365753934   11.54486151028988    9.80479867908790
C           6.88823086687258   12.64807858799564   10.46713047472547
S           8.07047971779695   12.22432145356772   11.66028295150541
C          11.94374667884732    5.64161621633493   13.64670137444393
C          12.30015732659631    4.64257132389551   14.57379927783089
C          11.45148959458849    4.55802425063684   15.63504424229980
S          10.18502201790377    5.72957276882098   15.50924743130298
C           6.45102051703748   14.06384331243683   10.31413123461002
C           5.57409362615377   14.49819510799398   11.49055874688855
C          11.53057605894306    3.67749300679078   16.83406212524469
C          11.94248106725229    4.47381382026047   18.07534043931462
C           8.95362866982483   10.39213756210843   17.10959321739561
S           9.56815477217009    9.38512931100202   18.38026018066427
C           9.10719741300933   10.53552069893183   19.60710178233433
C           8.49948147896886   11.63759884029897   19.02742582236465
C           8.41268063451789   11.54610528130002   17.64359008176548
C           9.32552742685118   10.35350350681416   21.00789953098705
C           8.99025125846820   11.39796127554954   21.92540150506846
C           9.17311072665766   11.29028237491090   23.33748998688932
C           9.67846934809332   10.11342981489593   23.97467510963505
C           9.98623694159486    9.10970640930388   23.06226808062966
C           9.84218856989692    9.23129940726376   21.64937882526824
C          10.52873442073554    7.77086681646846   23.33146975188000
N          10.72647796767449    7.17439361004184   22.10447846051229
C          10.33575525900212    7.98040891157392   21.05616278401862
C          11.25192346242769    5.83805348214839   21.92991864868607
C          10.13207918735956    4.82749602545933   21.71248982129350
O          10.43521996067670    7.64404924008352   19.89468344112134
O          10.78254793735859    7.22444218921402   24.38425469298175
N           8.49484300078326   12.61796271209496   21.68689131161258
N           8.39743555386966   13.17493201156386   22.85920722374524
N           8.77610654669190   12.45078254659850   23.87251211417670
C           7.85864898270528   14.49398374576931   23.02958778817638
C           6.36171752028852   14.42385801121168   23.31586434102912
C           9.81899981421403   10.07568030502551   25.39742749676460
S          10.24599611680014    8.65840369912467   26.32360591486540
C          10.12659169795868    9.52225874402461   27.82194588380862
C           9.80308697797518   10.84404782388497   27.57884593056953
C           9.61887145589374   11.15729031717997   26.23896164298899
F           7.85147148397817   12.50905528150541   16.89366251637294
F           9.65864409364935   11.75519110427359   28.55564544887156
C          10.91014086711835    5.84371310371228   31.10197696757667
C          10.72248567543837    7.14398464859674   30.58709786766064
C          10.72010255279790    8.26772235794359   31.45220729005659
C          10.90588046785614    8.16988201316571   32.82644784451820
C          11.03588354360941    6.86377971097597   33.34443458553686
C          11.03101252049903    5.73837919504756   32.48204567007054
C          10.50459977298546    7.51782341548131   29.24191248901219
C          10.36098058513967    8.86523583343696   29.06172965962874
S          10.48471368164727    9.75025254024274   30.56726307023962
C          11.16382146597678    6.48085174982642   34.69597640018644
C          11.29208702871020    5.13247081000562   34.87999411985742
S          11.23875791247634    4.25113705352868   33.37064485323079
C          10.98195899136387    4.69408909461133   30.22438814834599
C          10.97741273440565    9.33805772130365   33.67915419936968
C          11.62986948941637    4.58123778878912   29.02569169518087
C          11.49868832754529    3.30696021080598   28.44011028742765
C          10.74477457512673    2.44674294764330   29.17784608582032
S          10.18913188539836    3.19910335472114   30.63581344274409
C          10.25580649196234   10.49741025693643   33.60518098366816
C          10.58907433293573   11.42763069055019   34.60916248305507
C          11.57812533935200   10.99927850301863   35.44104561311623
S          12.11926308232871    9.41816445718374   34.99478662671615
C          10.41705365522509    1.02052727274901   28.89894905335874
C          11.19167988645565    0.08492655001154   29.82946755986822
C          12.15133811586620   11.66749055897523   36.64277787822364
C          11.69276425205183   10.97505472016875   37.92925900891743
C          11.46060283070521    4.50721409552937   36.14562931149454
S          11.61871704992691    5.48670876578441   37.56704572384467
C          11.78742457012874    4.08674638649931   38.59452972747258
C          11.72265936601968    2.92694652553097   37.83916517496272
C          11.54630676111605    3.16976888182393   36.48292110901060
C          11.97340294750709    4.13703549736244   40.01122677386794
C          12.05815361338779    2.92484060474313   40.76454885411940
C          12.25752583142070    2.89197490744040   42.17847639736652
C          12.40112108995425    4.06921882331828   42.97845323694931
C          12.31061450730625    5.23224743030512   42.22456950894322
C          12.09964463403651    5.26671973966269   40.81403700854069
C          12.40703286979730    6.62766349271165   42.68287548346981
N          12.24212768084540    7.41894000552027   41.56614211559184
C          12.05469904085048    6.68053233164288   40.41707671888776
C          12.29582846822910    8.86444197338402   41.58362174105213
C          13.68055944242448    9.36796482210479   41.19320595823449
O          11.88063386296710    7.18792881997635   39.32879094327780
O          12.58578467038432    7.07627798127386   43.79435625016551
N          11.97269481039519    1.65489396770073   40.35129696556727
N          12.11144945650464    0.94148206439076   41.43049989862921
N          12.28127886076042    1.60257216230682   42.53808283685891
C          12.02890057729322   -0.49100947352811   41.40751519296106
C          10.57912707670669   -0.94121735912029   41.56043667757272
C          12.61106209268522    3.94958213514642   44.39367782965816
S          12.82355593279642    5.28820838003994   45.49778540744926
C          12.99855652611313    4.23177352541246   46.82878173499825
C          12.89516294961244    2.92715930904347   46.44514351208853
C          12.67721752686055    2.75096419253331   45.07700264470808
F          11.46326585324123    2.17811356570665   35.58056001241729
F          12.99298825370697    1.89470676621094   47.30046396346305
H           6.24947310800576    6.73239504214822  -10.21901746220310
H           4.61088227162904    8.73416109625245  -10.52315964329782
H           7.04427928660766    7.88263164321646   -3.20538361549059
H           8.63434671218026    6.54307106401738  -10.10692402110221
H           9.63039545953629    4.37208053397798  -11.12431347128556
H           3.51034600225834    9.58166113967616   -5.77936968922286
H           3.09761661930146   11.44650500561716   -4.03024974858145
H           9.73086148862968    1.80921494622331  -10.65081236655398
H           8.62267654317336    1.21478881716841   -9.40385000784546
H          11.44839346937311    2.26249469699217   -8.89211277542631
H          10.95397631853988    0.56594617705333   -8.86621816471133
H          10.33213761031317    1.68942488423612   -7.65117053320336
H           4.40591083084403   12.85171718074409   -2.24726545319386
H           6.17095189717694   12.79312023928503   -2.38111481881953
H           4.46062383206132   10.83743769351060   -0.76987141444914
H           5.45556503345796   12.13522266746736   -0.10118050975057
H           6.21749562800653   10.76497137711833   -0.91944687160467
H          10.68116185848191    4.09194190252322   -0.44566167590126
H           7.40696578328100   10.68518566893298    1.96137234700299
H           7.36374812983174   10.61435298153533    3.74977063172074
H           5.41730842992742    9.20297070379066    1.85094506119844
H           5.05347743541277   10.65851244730469    2.78417638432913
H           5.35713646219130    9.13057314360417    3.62019554111782
H          12.17715828636280    1.78387538768109    1.83198004121781
H          12.34194011567019    1.85802482610402    3.61309570455390
H          14.05726861203985    3.40760675945472    1.60126869460698
H          14.58124523805082    1.98412142484766    2.50770750465310
H          14.21469679591199    3.48727746671448    3.36170415041235
H          11.35847025206532    4.43853025277480    5.88817137769032
H           8.94275268619324    8.92035805089467    9.10859788079375
H          10.20799838651908    8.17978527183139   16.10091654922302
H           6.79637067128234    9.38127612097284    9.84637335200179
H           5.70219901176181   11.58247178580111    9.02694007218792
H          12.51758507242343    5.85902689891324   12.76410473072480
H          13.16080396585498    4.00815173446903   14.45530222404272
H           5.89255052476086   14.16172294475515    9.38071306739036
H           7.32610224975668   14.71601276127535   10.26086288954390
H           4.68768678586391   13.87095006457506   11.55277113200341
H           5.26161362888628   15.53222908848455   11.36755702914501
H           6.12582637468578   14.40824418692871   12.42344053515663
H          12.25849677754827    2.88569684083981   16.64369999215555
H          10.55784297091101    3.21299449779199   17.01460896308032
H          12.91985483900313    4.92704048165495   17.92431676837784
H          11.99299955872691    3.81758449550537   18.94106150778229
H          11.22423812201917    5.26576635289282   18.27658518980312
H           8.13325785610006   12.47364955169003   19.59143053307011
H          11.81731122885117    5.59857580030886   22.83309514442120
H          11.91834346055170    5.85501751088638   21.06376476717126
H           9.45874991601385    4.82110318743556   22.56641304619880
H          10.55280331966912    3.83327427934081   21.59154744597767
H           9.56898142590504    5.08131613010863   20.81783771106786
H           8.04941978318541   15.04563373154232   22.10747925955837
H           8.38447682320323   14.96205616876806   23.86399744337871
H           5.84097983982564   13.94871730212519   22.48807041508817
H           5.96584536594687   15.42634026153672   23.44888071840415
H           6.17961182392625   13.85140928027111   24.22207252855366
H           9.34922525964087   12.13496070095355   25.88922477484623
H          10.42363046036378    6.82094788004863   28.42787259615960
H          11.14700679142693    7.16077646068230   35.52730785374467
H          12.21842326444802    5.37200647402990   28.59618947620433
H          11.94795705417180    3.04060348022196   27.49967871979201
H           9.48000335240687   10.66590127083616   32.88049949877415
H          10.10728229583990   12.38414958469380   34.71004232774236
H          10.66642245809323    0.79831228925192   27.85914957651984
H           9.34567497988449    0.85531052444155   29.03764119418086
H          12.26252310365544    0.21984972764074   29.69495683492727
H          10.94137827154310   -0.95156751588068   29.61720479582897
H          10.94530756010885    0.29868730494250   30.86696831796779
H          11.83320497690568   12.71234787433789   36.65136609832783
H          13.24293025043725   11.64185632322025   36.59326471643158
H          10.60826204958491   11.00778536926215   38.00798316258678
H          12.11994715390239   11.47351830893916   38.79618485703856
H          12.00590230899478    9.93322037802791   37.93444783448286
H          11.80314678099371    1.94348693100302   38.26029440154724
H          12.04204854376333    9.18154648738887   42.59751729751499
H          11.54753945687214    9.23158284518546   40.87660125723087
H          14.42846021309715    8.98754595286148   41.88509985517835
H          13.69866755757915   10.45368294276983   41.22144562587373
H          13.92752510524141    9.03874648156321   40.18671460786717
H          12.63716190612029   -0.86816372197696   42.23145532680009
H          12.43565502931090   -0.82996093881597   40.45297506667697
H          10.17325925797660   -0.59023908247010   42.50610295570169
H          10.52701793984210   -2.02571952860110   41.53817281992040
H           9.97480471314096   -0.54426314308523   40.74845359281856
H          13.16456666703957    4.61063024131093   47.81716052679570
H          12.57347231968489    1.79220826784138   44.60810422793136
