308
 SCF done       -518.220090016378          0.000646348881
C          -0.62385307637793  -12.55503736217300   -9.37659066516891
C           0.38668571710120  -13.06452873471609   -8.54866369975064
C           0.65196525475441  -12.44847167534085   -7.30114097251039
C          -0.05990606414660  -11.35567104087633   -6.82507042551537
C          -1.06984248223781  -10.84504403532361   -7.65347508344748
C          -1.32985979529131  -11.45597830720508   -8.90508332098007
C           1.21894909418384  -14.20538645375793   -8.71419959844013
C           2.08095128585160  -14.43437350820222   -7.65451819274296
S           1.92514240576159  -13.24628804973423   -6.39654817180689
C          -1.90425664708505   -9.71045826383794   -7.48071755456765
C          -2.76041243686266   -9.46892916852041   -8.54785323301739
S          -2.59403830773503  -10.64792144492804   -9.81397000013848
C          -0.93744294882141  -13.11367499656325  -10.68150844600715
C           0.23415135750851  -10.79903457656414   -5.51492139056224
C          -2.15509873970659  -13.50903999892223  -11.14575455479428
C          -2.13685987248667  -13.96172675432837  -12.48750076205486
C          -0.89667737491165  -13.87203923497989  -13.04855832097389
S           0.26938722436106  -13.25277531738145  -11.92271642023057
C           1.43159010274570  -10.36140963790225   -5.03810656845918
C           1.38041764018069   -9.90051797224734   -3.69935347644550
C           0.13675051048725  -10.02788244690553   -3.15379645212098
S          -0.99174140253029  -10.69916760344842   -4.28865719204083
C          -0.43956086916207  -14.28592067843463  -14.40642105658797
C           0.11844169436913  -15.71112318698174  -14.37889943048534
C          -0.35888624204001   -9.61822392318415   -1.80823680166291
C          -1.11271029263263   -8.28865020054524   -1.89194034007816
C          -3.99613207661367   -6.55647639602653   -6.68467432373838
S          -5.20792394304078   -5.74303337848543   -7.61789547368727
C          -5.53096597561704   -4.63502487850663   -6.31116838059106
C          -4.68319346984640   -4.89212421901487   -5.24387616896702
C          -3.81864911796746   -5.95768047800560   -5.45248392669088
C          -6.59295894237879   -3.67793272948856   -6.31509676515910
C          -6.95694270487192   -3.00197168333466   -5.10794152217216
C          -8.11200748503628   -2.16924722005310   -4.99668055930772
C          -9.00055040537745   -1.91064157240881   -6.08764015135384
C          -8.54319152961195   -2.46594749930123   -7.27910862262871
C          -7.41085755604870   -3.32383856151857   -7.38293712945326
C          -9.09454856931635   -2.30772097839787   -8.63135786621941
N          -8.30007878621518   -3.06222315584030   -9.46952903215203
C          -7.29098177294907   -3.71766684773279   -8.79442434365914
C          -8.53070358419482   -3.19094806910560  -10.89107367634002
C          -9.48330684829534   -4.34278597201670  -11.19126875266090
O          -6.48963817680051   -4.44407816596379   -9.34248036085858
O         -10.02744053776979   -1.63963972594483   -9.02515473446688
N          -6.36416379385611   -3.01218466910398   -3.90855866812951
N          -7.10590608577914   -2.24379230917110   -3.16255417432690
N          -8.15215080907111   -1.72141875383401   -3.73649633060124
C          -6.81515091325453   -2.02627360523491   -1.77447446217565
C          -7.46033595827004   -3.11293007806409   -0.91943114815401
C         -10.23900237564038   -1.23345940586708   -5.86404872723426
S         -11.43901237588761   -0.94403447498419   -7.09602459776284
C         -12.56834571455029   -0.36054369114393   -5.91721133389032
C         -12.02145424446292   -0.35330086583241   -4.64954049070192
C         -10.71964965484936   -0.83460702434281   -4.62489579160180
S          -2.08776223154162   -8.50440211048412   -6.26041223789145
C          -3.33158091897165   -7.70184704553761   -7.19964990498329
C          -3.57127994439691   -8.34094954827308   -8.39410495791084
S           1.38134588930876  -15.44123084991794   -9.90937706313686
C           2.60157121789857  -16.22252916325257   -8.96807592851430
C           2.87971168683914  -15.58464336170240   -7.80187167715022
C           2.59701628078339   -9.39804194601238   -2.98383489446559
C           3.36923596650417  -10.56152193698842   -2.35973228580615
C          -3.37914554335077  -14.41661691068251  -13.19056642566594
C          -4.15915102464850  -13.21649298173230  -13.72974246020234
C         -18.69905836941017    0.32544924163408   -5.25880700838164
C         -17.78549513644950    0.29537029608422   -6.32427774069222
C         -18.26020091452932    0.32490073489184   -7.66093054577085
C         -19.60854828476932    0.36774911477595   -7.98784250233735
C         -20.51967172199489    0.32846203711551   -6.92056636543505
C         -20.04764211356243    0.33475796655249   -5.58576895528645
C         -16.36846073296429    0.22272239764553   -6.31279748437850
C         -15.79356719083219    0.17696772384774   -7.57741654890241
S         -16.97166459851748    0.27415086882905   -8.84929347099148
C         -21.92278341486578    0.12835157437672   -6.94146978854301
C         -22.49797809146414   -0.00483941655049   -5.68352474024147
S         -21.33794507378080    0.19975915679824   -4.40260523331501
C         -18.29768801947920    0.28585274221530   -3.86095513300597
C         -20.04552214198389    0.43784685214943   -9.36985095472413
C         -18.62691975838521    1.16771181249569   -2.87786065581853
C         -18.11812994620089    0.81927697771221   -1.60217689566235
C         -17.43207760719129   -0.35930942074380   -1.62210771024304
S         -17.38641674643098   -1.04415324656348   -3.21638346399872
C         -19.65042537925115   -0.32630432607384  -10.42621654970466
C         -20.26309044848696    0.03105931240620  -11.65169748117749
C         -21.10410054054558    1.09770040610381  -11.52126468075845
S         -21.16821695586901    1.66169234641676   -9.88205333652978
C         -16.70130857572764   -1.05411367290888   -0.52325988180468
C         -15.19910603562160   -0.77331907821867   -0.60960144652487
C         -21.98049671259996    1.74556762683624  -12.53909056184636
C         -23.39852755412020    1.17265484363769  -12.47105695309031
C         -25.53897784751312   -1.12191079847247   -7.40906312185448
S         -26.65412090295206   -1.80257636640140   -6.26837927807257
C         -27.61999600157177   -2.47138442507734   -7.55505031246991
C         -27.11977530440929   -2.08284424683647   -8.78804929867070
C         -25.96123852289662   -1.32293922055750   -8.70950016299552
C         -28.64125045607077   -3.45164106935880   -7.35598607879046
C         -29.05194379496436   -4.27691979854098   -8.44658102884018
C         -29.83480548081845   -5.44793417384100   -8.24496314381207
C         -30.32009470609338   -5.88573093160976   -6.97905084051978
C         -30.06988076506102   -4.96418818502979   -5.96612761950010
C         -29.24007784484636   -3.82021137141468   -6.15520458363022
C         -30.50365018146045   -4.95494682136198   -4.55368199175620
N         -29.90720251444256   -3.85005459106690   -3.97441835940447
C         -29.13234273853089   -3.13258434076101   -4.86077065820876
C         -30.11318408666722   -3.45797459795128   -2.59810560446249
C         -31.27374054921120   -2.47759912881461   -2.47060992506968
O         -28.51544332776701   -2.13405335238954   -4.55702547171702
O         -31.24147384145813   -5.69614593680645   -3.94429341985378
N         -28.78398752018249   -4.20886512058283   -9.75716921711725
N         -29.37416343124973   -5.25140393319330  -10.27239170624503
N         -30.00542165056130   -6.02556860157837   -9.43705217865120
C         -29.30101228622542   -5.55773184131335  -11.67205312821692
C         -28.39343783555853   -6.76212010304927  -11.89880336552824
C         -30.86220775921590   -7.20693486126721   -6.88789940885421
S         -30.55660327862845   -8.30867518172472   -8.21198734934067
C         -31.23765163105309   -9.63553953309612   -7.32518463420885
C         -31.72810718917939   -9.21491656949736   -6.10653782201563
C         -31.51336405969639   -7.86018415846618   -5.86196030058614
S         -23.07242515584106   -0.19836797061338   -8.18458576600088
C         -24.30321090507766   -0.56204442948693   -6.98775249544243
C         -23.84355890322965   -0.38477153276965   -5.70293248643499
S         -15.15677086081998    0.12105119645812   -5.08731023114520
C         -13.90254101174557   -0.05522696183689   -6.30004488172272
C         -14.40657166942286    0.00915031007566   -7.57815359228303
C         -19.94461049986600   -0.67357081211324  -12.93492773069126
C         -18.66239446268595   -0.11163164815370  -13.55094888164586
C         -18.38385165464763    1.65080284700646   -0.38454505045986
C         -19.72921523381593    1.27499924404462    0.23841410603474
C         -31.51107824095731  -15.83540493148761   -7.28802497970887
C         -31.04451071867317  -14.84255655168329   -8.16471718926173
C         -30.42107863452355  -15.20965710917762   -9.38322514565555
C         -30.22740256387053  -16.52834756979967   -9.76800019423697
C         -30.66144483626822  -17.51949737094087   -8.87442301036875
C         -31.31244115863065  -17.15466109542365   -7.66938999211801
C         -31.10969090100304  -13.42985077988838   -8.05674937220494
C         -30.56395422816852  -12.75287640280766   -9.14001227584139
S         -29.94349621368901  -13.82948837759914  -10.35497324826338
C         -30.48350206966303  -18.92477688716755   -8.92895319721655
C         -30.98702087770407  -19.60426342605082   -7.82652771979634
S         -31.73712933183644  -18.53804116363438   -6.67709446574475
C         -32.14629638020316  -15.49049727189711   -6.02698587508490
C         -29.60020248686310  -16.84691188770460  -11.03902957960979
C         -31.65314433108449  -14.71489547314312   -5.02218469964173
C         -32.53057135747745  -14.58207001599346   -3.91806098119662
C         -33.70334712443968  -15.25388569118848   -4.10368114313592
S         -33.72833933021342  -16.08572966727596   -5.62658731215422
C         -28.40956358185932  -16.39598788856092  -11.52247930976120
C         -28.09208969035516  -16.88960712231148  -12.81144984196745
C         -29.07300336610177  -17.69227363631497  -13.31636791256196
S         -30.39129788046286  -17.86602538080941  -12.20175192793632
C         -34.86598736128693  -15.40021834992430   -3.18055661342054
C         -34.71598234506749  -16.64776132578089   -2.30636680370580
C         -29.11061758176596  -18.45560811298858  -14.59678534370940
C         -28.64752355658230  -19.89822229471114  -14.37712230085316
C         -29.57558970762298  -22.66163812699687   -9.29639603025364
S         -29.89998094793940  -24.02785425154389   -8.27810478334552
C         -29.00957883022059  -25.09466929324022   -9.34412785524413
C         -28.51665763485955  -24.38470079712869  -10.42151508679579
C         -28.83069175319852  -23.02961310869210  -10.39728282724237
C         -28.90049049409168  -26.48141192157380   -9.00524100831648
C         -29.56854305214787  -26.93230746867122   -7.83037810294848
C         -29.57061363196668  -28.27565621857282   -7.36202549649827
C         -28.87534631971861  -29.32274947693790   -8.04392251648089
C         -28.21957490152167  -28.86290230075440   -9.18335516460034
C         -28.22321401275106  -27.51117134544684   -9.65446738820152
C         -27.40227214576783  -29.64826952826884  -10.12037821459288
N         -26.95913357648110  -28.77184119421979  -11.08533984417602
C         -27.39880399105293  -27.47923748718505  -10.88139956720270
C         -26.09268460246954  -29.16002697362989  -12.17585431179304
C         -24.62620765927512  -29.09883455598690  -11.76388908978932
O         -27.10778592782386  -26.57302854392661  -11.62999825544122
O         -27.12633919028521  -30.82878198714271  -10.12695935230681
N         -30.29546154630298  -26.20819489920665   -6.97621147793586
N         -30.69521367078141  -27.05879302356661   -6.07588341186332
N         -30.30704467591627  -28.29077489569423   -6.24150763233368
C         -31.53738427018271  -26.66284985386996   -4.98348820963428
C         -32.89258441320128  -26.19881091568952   -5.50472443253790
C         -28.91779317403632  -30.65738258981483   -7.51897853255688
S         -28.12223442108279  -32.05034000805799   -8.21103025091179
C         -28.72293200645356  -33.05770838148445   -6.96925523958910
C         -29.49314519171049  -32.38646820344608   -6.06533108551757
C         -29.60340244860618  -31.02910065435628   -6.37600845535478
S         -29.67983347092621  -20.00531861056991  -10.00647007941257
C         -30.03550888835160  -21.36177656753472   -8.95540656925734
C         -30.74709549461973  -20.98126406035560   -7.84071740976665
S         -31.69525171655309  -12.32164745057401   -6.86975180566642
C         -31.15791000576703  -10.95923774625160   -7.83579574318681
C         -30.58692633421348  -11.36065173646535   -9.02136465703447
C         -26.83328478516372  -16.49841998572124  -13.52328275500562
C         -26.99893653545640  -15.13410338894161  -14.19439946180446
C         -32.18767403715362  -13.73623280552530   -2.73014726067588
C         -32.38064326874783  -12.25398036680060   -3.05297861288221
H          -3.04139648048347  -13.50947864068735  -10.53577879580158
H           2.32483777430704  -10.33455583802042   -5.63723088988002
H           0.34006373059610  -13.60261618170225  -14.74951880842679
H          -1.27352943180968  -14.22911486888380  -15.10826227797390
H           0.95752015049496  -15.77072131671895  -13.68936443873846
H           0.45764797580289  -16.00489680126217  -15.36927106329994
H          -0.64593528788424  -16.41111697978921  -14.04892268988584
H           0.48239364842893   -9.52398274469984   -1.11987506004933
H          -1.03111566036445  -10.38649559933970   -1.41939184743837
H          -0.45881682896162   -7.50664970915839   -2.27190200905303
H          -1.47586180238952   -7.99505266472726   -0.90991902562516
H          -1.96170772264490   -8.38381030209830   -2.56532114361759
H          -4.71443050897921   -4.31263522430878   -4.34085144605456
H          -3.09303931528114   -6.29938163951526   -4.73505731393296
H          -7.56097455563246   -3.36468160028689  -11.36339620916644
H          -8.95375890043713   -2.24561454961496  -11.23928812404058
H          -9.06400204484754   -5.27902051774775  -10.82999134544902
H          -9.64178829003465   -4.41995054617224  -12.26322324166802
H         -10.44155915301974   -4.17198402351247  -10.70600040492903
H          -7.20761654397745   -1.04333471096141   -1.50774585426570
H          -5.72989313877899   -2.04241588199312   -1.65778966318269
H          -8.53996457188503   -3.10114338160827   -1.04765590674780
H          -7.22989440803554   -2.94319733989598    0.12827905927762
H          -7.08260545862084   -4.09064120153792   -1.20846337338722
H         -12.56070903859890   -0.01850589859513   -3.78054565743752
H         -10.12907611191213   -0.91954603738211   -3.73250907266524
H          -4.29811616446738   -8.00187530812063   -9.10888396207435
H           3.04639713888061  -17.12068720664614   -9.34811924305067
H           3.60754236477208  -15.91355194450612   -7.08376952420016
H           2.31414812893981   -8.68505888017197   -2.20793507711963
H           3.23981460116083   -8.88096497712987   -3.69907297411412
H           2.75025653908758  -11.07889656290049   -1.62995301925493
H           4.26667202813046  -10.20072518427112   -1.86236239917160
H           3.65866229824004  -11.27568739917876   -3.12723399757343
H          -4.00517348021033  -14.96535333011877  -12.48372610087671
H          -3.12622375085785  -15.08983219347849  -14.01067274122015
H          -4.41635922278787  -12.53866537454410  -12.91910455382263
H          -5.07573027285892  -13.54460641530585  -14.21476851501632
H          -3.55905724417615  -12.66881622315131  -14.45315491413160
H         -19.19319904053511    2.06367637890459   -3.06313663671709
H         -18.96737708083747   -1.15164921205418  -10.32990986414117
H         -16.86870379869505   -2.13075952932365   -0.60070727367344
H         -17.08541818486143   -0.72002037821201    0.44186217172090
H         -14.81010480796476   -1.11557049200641   -1.56612856532612
H         -14.66994332414076   -1.28893990236519    0.18828900097699
H         -15.00846822824931    0.29422436713639   -0.52321636880532
H         -21.56556125572445    1.58940501442368  -13.53631500996378
H         -22.01967882448917    2.82074103824755  -12.35208716935811
H         -23.38384695839844    0.10234871450823  -12.66523372248748
H         -24.03830719406842    1.65341455877447  -13.20712268601209
H         -23.81937692653830    1.33630774998462  -11.48143886464906
H         -27.58485069423024   -2.37801725597216   -9.70959972055745
H         -25.42181478643732   -0.94955774165250   -9.56238168082193
H         -29.18628783301798   -2.99665938446116   -2.24854319118100
H         -30.31735171530850   -4.36803106501963   -2.02908481296170
H         -31.07020165373268   -1.58055855118996   -3.05084398580554
H         -31.40794773769194   -2.19865263752435   -1.42928751045495
H         -32.19196019047887   -2.93413402959262   -2.83309245351163
H         -28.91452566552730   -4.67007310476925  -12.17492850375710
H         -30.31150185862656   -5.77818626140554  -12.02487901040800
H         -27.38219951355084   -6.54384085332111  -11.56401007790184
H         -28.36673367956552   -7.01162413762539  -12.95542445869349
H         -28.77168271470274   -7.61601627716164  -11.34234824817749
H         -32.20632329054546   -9.88179356880626   -5.41061360452613
H         -31.80838065120576   -7.36592279751841   -4.95598599090568
H         -24.44785178901239   -0.55826934475218   -4.83169630708943
H         -13.79700361730379   -0.08105669574655   -8.45819041887733
H         -20.76936341527150   -0.56744881045692  -13.64091963962765
H         -19.80973221676868   -1.73772442770985  -12.73019331441710
H         -18.78341503805829    0.94504166484595  -13.77940110869569
H         -18.41733820862716   -0.64048001973132  -14.46923130723184
H         -17.83266234967500   -0.21656355831552  -12.85584820848766
H         -18.40119370623895    2.70403256973493   -0.67214719584329
H         -17.58769577199098    1.51469879305398    0.34890344915844
H         -20.53046351233879    1.41250888180240   -0.48391593247052
H         -19.93303227130899    1.89536849456872    1.10824469562391
H         -19.72556722328957    0.23192963248433    0.54725666326074
H         -30.67048960807164  -14.27790225001899   -5.04819680485368
H         -27.75372680592217  -15.75605354054907  -10.95865600062431
H         -35.78351856643756  -15.48231809022976   -3.76679451914875
H         -34.94618281240742  -14.51395680028450   -2.54827462283563
H         -34.65319541714478  -17.53631505704331   -2.93040170798407
H         -35.56950564687855  -16.74856026786698   -1.64039820755295
H         -33.81037232783025  -16.58470577310644   -1.70716033930502
H         -28.47030750749256  -17.96954914421597  -15.33487566221979
H         -30.13141507266447  -18.46261430072496  -14.98481888881094
H         -27.62865807490243  -19.91527602087256  -13.99644528726693
H         -28.68118064044048  -20.45416637817159  -15.31079708725460
H         -29.29290558471364  -20.39134405722251  -13.65353953323898
H         -27.93912292629821  -24.84116080100642  -11.20164521375689
H         -28.52331172791134  -22.32847772762493  -11.15347215113079
H         -26.28681683903973  -28.47313173768717  -13.00298347805468
H         -26.36410302559183  -30.17900415600309  -12.46210497472664
H         -24.36319537066484  -28.08749169031649  -11.46223743805553
H         -23.99628075298772  -29.39070184972972  -12.59946366130412
H         -24.44335701814639  -29.77620805550493  -10.93295801415862
H         -31.04379609760275  -25.84742553763605   -4.44789111359104
H         -31.63589340216550  -27.52970840913309   -4.32839349822343
H         -32.75449852475871  -25.37533089744290   -6.20074703666574
H         -33.51205004934117  -25.86400444882781   -4.67798495815174
H         -33.40182610159940  -27.01121264423869   -6.01756243411382
H         -28.47519454248510  -34.10146058587784   -6.97090956168205
H         -29.96239175806435  -32.84405392614038   -5.21246798006800
H         -30.16520739425532  -30.32803856668439   -5.78971615969766
H         -31.05953099232708  -21.66930010213584   -7.07710426874273
H         -30.19395252551893  -10.67520492421801   -9.74921105338897
H         -26.57199058616695  -17.24759880726431  -14.27156275556166
H         -26.01825199742581  -16.44705931396183  -12.79810382711254
H         -27.79484364962659  -15.17092936737616  -14.93511024780787
H         -26.07641585815640  -14.83832195993907  -14.68877526895782
H         -27.25668825936148  -14.37884742757265  -13.45540058900732
H         -31.14435350395644  -13.91237307946304   -2.45872979849488
H         -32.80893292596450  -14.01114246108593   -1.87719395616489
H         -31.74411586987963  -11.96573451057644   -3.88635378777222
H         -32.12774850903597  -11.63962159629208   -2.19196003911750
H         -33.41479685729151  -12.05917886457831   -3.32913853524229
