224
 SCF done       -396.674154707443          0.000750368891
C          -2.84689728155184  -15.89189215516710   -0.95309978685601
S          -1.94940681800232  -14.65061929085904   -0.17451551469192
C          -3.41214791412513  -13.93614788145291    0.43990177521120
C          -4.50404378430357  -14.65485010558197    0.04510340922573
C          -4.18753440000142  -15.78203681363061   -0.75031918081256
C          -3.38810018054309  -12.73358095143123    1.25062806201506
C          -4.28883032780367  -11.68191006680056    1.01223565571821
C          -4.29465006783349  -10.54473159818270    1.85122548338513
C          -3.43864418681334  -10.39605369923610    2.94038974017406
C          -2.50017070430631  -11.42307769687031    3.14423030984332
C          -2.49481588057001  -12.55910188998078    2.30288869869350
C          -1.46521573929214  -11.49326002982134    4.12389201793762
C          -0.74581854235089  -12.63051278976763    4.04780814761586
S          -1.26162042949550  -13.69389116733629    2.78584138681868
C          -5.25733141807119  -11.57090751425401   -0.03029020947968
C          -5.97384248975963  -10.43198286324391    0.03803922034764
S          -5.52311859100952   -9.40946662962019    1.35848262437316
C          -3.51615772391970   -9.25851485126273    3.83227049143008
S          -3.75548542309154   -7.65019365530344    3.22844980931239
C          -3.76019246997950   -6.98628186832553    4.84612473166050
C          -3.58575917820970   -7.98135486918082    5.78833787487457
C          -3.44341137314398   -9.25178411445874    5.19970876537623
C          -5.21804283491108  -16.70116435577899   -1.32712780960578
C          -5.94894176032051  -16.03516809149053   -2.49389486041234
C          -3.51654082013053   -7.78400777876848    7.26901578303672
C          -2.10576128445870   -7.38443221551662    7.70587642434271
C          -3.97546535168940   -5.58454020643506    4.97862843269658
S          -3.98903763407185   -4.74049527997427    6.49557833213324
C          -4.36085406088859   -3.23148609864302    5.71308669003918
C          -4.44490131529500   -3.40029918699163    4.34581409393915
C          -4.22692978597953   -4.71114329786779    3.93751523877252
C          -4.59746178100177   -2.02042891520878    6.43473054937598
C          -4.49752490279062   -1.88711792577464    7.81544971498252
C          -4.81190333054469   -0.71842367596320    8.52405551199689
C          -5.26501047755088    0.44438596331269    7.91602974653970
C          -5.32827400549125    0.35014179788712    6.50565510131285
C          -5.01046459413587   -0.83176771036821    5.78012665967927
F          -4.09865126039554   -2.94610073723827    8.55135754117802
F          -4.68503198829966   -0.77553549730274    9.86522613842009
N          -5.69367411050812    1.28146315307227    5.61859751104078
N          -5.59810120442619    0.68635669597031    4.46380532372924
N          -5.20499249911263   -0.55700026538478    4.48146981282586
C          -5.93540520731011    1.36063635382109    3.24274585078108
C          -7.41733974526513    1.71857247355723    3.23043564642002
C          -5.71630278087842    1.63098193067997    8.57823927935112
C          -5.71929823133325    1.96894934572313    9.91388167387272
C          -6.34783427442265    3.18875460947446   10.18075489368896
C          -6.84039790812858    3.80735326019573    9.05252452969331
S          -6.48392326053682    2.86878372299770    7.63035984384344
C          -7.61857463650704    4.99481491943400    8.88852932325772
S          -8.52024173787153    5.13652956642713    7.40458719863278
C          -9.19109276846914    6.66590034577597    7.88920040039527
C          -8.72029423524676    7.01943484658708    9.12567765591780
C          -7.82271048299790    6.09497469662728    9.69601187731045
C         -10.19931565660232    7.28657389933601    7.06096750601008
C         -10.13894175841244    7.23599542862655    5.65543282341848
C         -11.25460345969556    7.61491936998352    4.87616883292847
C         -12.46082938541430    8.04223371411922    5.43386630656280
C         -12.46209576320103    8.24386757042971    6.82757628935603
C         -11.34580176255802    7.86413431838157    7.60544601959491
C         -13.49847759065511    8.80210449708856    7.63438589862435
C         -13.19638376929189    8.81321829964796    8.94764406297123
S         -11.64040382833936    8.14478188686975    9.30058364302735
C          -9.04511447887332    6.81896570616063    4.83974472195682
C          -9.32797796235011    6.85709408984170    3.52309873642260
S         -10.93496177199437    7.39231601535017    3.17766267644519
C         -13.67369080742892    8.14311197329064    4.65698566302511
S         -13.68321708908197    8.63599311439649    2.99361948814201
C         -15.37588582537966    8.23507562133411    2.82696123561596
C         -15.89489212176930    7.77764078438476    4.02376216604890
C         -14.92843436260059    7.74049428226010    5.04213280148483
C          -7.20365794901346    6.32091558393594   11.03890080302350
C          -8.13784615786814    5.84597416006552   12.15396389175866
C         -17.31825380724660    7.38338589984878    4.26336030875961
C         -18.22672062879886    8.61133379688175    4.34019230681679
C         -15.95180392169825    8.31685364166507    1.52599992727104
S         -17.45459748088027    7.55037210065158    1.10291394950627
C         -17.25140146249903    7.96559857799606   -0.57467735805990
C         -16.09549885458062    8.69407923463502   -0.76210417970762
C         -15.36841765346558    8.88452002218128    0.41101212372957
C         -18.18905246151495    7.45707209380679   -1.52748523481978
C         -18.12733952358040    7.63168512456790   -2.90588685735622
C         -18.99613258303825    7.01017212502436   -3.81516852077700
C         -20.01900458941965    6.14654472392407   -3.44142001606455
C         -20.13383591856109    5.99199550880661   -2.03990426278080
C         -19.25755451422575    6.62410400509103   -1.11754146220080
F         -17.17261592512331    8.41835387883678   -3.44303668109143
F         -18.77846558223763    7.27278605472632   -5.11974564793280
N         -20.99750455686250    5.25678983944103   -1.33042323827793
N         -20.65083186027920    5.45345943047848   -0.08893390504522
N         -19.63397567453880    6.24545569084191    0.11097269930493
C         -21.34660156549354    4.82292795011684    0.99708619888269
C         -22.84313227987334    5.08409988791915    0.89068468197523
C         -20.86779478568770    5.40820774324563   -4.32464036863047
C         -20.85828614853530    5.31189211003890   -5.70018123169267
C         -21.80265472473272    4.41479515747970   -6.19614071313483
C         -22.56724855445112    3.81681396626499   -5.21552730914729
S         -22.09379270446825    4.38079005198693   -3.64203064387941
C         -23.56143744784777    2.81354266798561   -5.41035039081301
S         -23.58017225387135    1.96752179272933   -6.93830713108848
C         -24.89340429732455    0.95816847055438   -6.41887161448550
C         -25.28734940982358    1.29541138364376   -5.15171435197229
C         -24.54829681154195    2.34139635572904   -4.56856046333256
C         -25.42200086117339   -0.09177175665021   -7.26247438788430
C         -25.72684250639673   -1.35872814609581   -6.73282088200077
C         -26.29013755139890   -2.35789753788052   -7.55764176919987
C         -26.57399991007858   -2.16356245195953   -8.90775997966885
C         -26.21111546602037   -0.91780182283405   -9.45091977416808
C         -25.64751642495482    0.08152321372388   -8.62568299920603
C         -26.30126730056837   -0.48566558412102  -10.80788693494557
C         -25.86375572525170    0.77634823653151  -10.98780451662389
S         -25.30712745452834    1.52973888919692   -9.53446578715907
C         -25.51315839905868   -1.83478193255544   -5.40456250171182
C         -25.92475185067415   -3.10595863006043   -5.22937522329578
S         -26.59536398745794   -3.81840122906871   -6.65502553399644
C         -27.21068255292981   -3.17953237786722   -9.71756822965320
S         -26.76127777754918   -4.85010834604911   -9.59114777535745
C         -27.92573510352132   -5.30168164784851  -10.80988802064358
C         -28.62183697699785   -4.19857417863830  -11.27414251173338
C         -28.20238991835043   -3.01130855500655  -10.64845988558894
C         -24.83889640768378    2.83542010927614   -3.18655664398213
C         -24.08556192166956    2.01799764497119   -2.13524612501864
C         -29.68987384101571   -4.28027366465061  -12.31966903753478
C         -30.31408078233523   -2.93985670015705  -12.68635057642875
C         -28.03071922405518   -6.67577921293744  -11.16165531839898
S         -29.14832728346537   -7.27200170563214  -12.34745996929086
C         -28.61028289649193   -8.90914643525234  -12.10799448003229
C         -27.61423981519849   -8.95977362439784  -11.15403732942028
C         -27.29158702878893   -7.71398121849649  -10.62653551029131
C         -29.17305322502149  -10.00951190962091  -12.82762188880246
C         -30.17810362517007   -9.89104299330688  -13.77768997271571
C         -30.73298452545387  -10.97485493743340  -14.47135880507252
C         -30.34346090449709  -12.29365582752280  -14.28940261484777
C         -29.31379145381380  -12.45078360450244  -13.32715178919305
C         -28.74753313832300  -11.34673690441385  -12.62113960571620
F         -30.67500896417953   -8.67207861652516  -14.07353892976741
F         -31.70330827911020  -10.68054320767810  -15.35971178506062
N         -28.68862102544679  -13.55607169907535  -12.89774283477051
N         -27.82979064695671  -13.12512166703488  -12.01695737528639
N         -27.80940185795453  -11.83999573001445  -11.80154222762472
C         -26.98443281992542  -14.02424783913078  -11.28455033395186
C         -27.67075532780932  -14.47107022086837   -9.99714936416094
C         -30.91268596313041  -13.40924041191405  -14.99012935622932
C         -30.57437044150857  -14.73457765405229  -14.84840905100757
C         -31.32115907073668  -15.58515572194056  -15.67804008778513
C         -32.22064394563202  -14.91047368182464  -16.44607260604167
S         -32.17778315025587  -13.22149715767694  -16.17271579665408
H          -2.32296361253128  -16.63893551708501   -1.51606158816068
H          -5.50665484743279  -14.41132653859688    0.35000123953147
H          -1.26485273737035  -10.70874583733150    4.82992474289120
H           0.08323585105331  -12.92822099999842    4.65973833335065
H          -5.38100533958452  -12.30898957469558   -0.80117293485707
H          -6.75435501175081  -10.10244390148823   -0.61977849240011
H          -3.33933521308242  -10.15188443465584    5.78022114279827
H          -5.94084439101024  -16.96534713514063   -0.55153743220515
H          -4.73661529302127  -17.61750939202659   -1.67292238413613
H          -6.44866964371439  -15.12750778826620   -2.16294921104677
H          -6.69519681511845  -16.70876302423716   -2.90842520322298
H          -5.24420660147648  -15.77179756078050   -3.27957801951952
H          -3.79375311784546   -8.71928384716301    7.75995014587604
H          -4.22357301030760   -7.01381255946738    7.58211588864941
H          -1.39044337445472   -8.15653387971669    7.42985271207969
H          -2.07252100127951   -7.24665469527370    8.78330629270967
H          -1.80896942976152   -6.45281044255801    7.23107717901315
H          -4.66592841249584   -2.58431472600935    3.68405309527380
H          -4.25904939776301   -5.03316454972348    2.91156544009325
H          -5.67941674460692    0.68388903198782    2.42595743287281
H          -5.33150551421092    2.26974635182508    3.17392528180450
H          -8.02604597193941    0.81869253425869    3.27880983965610
H          -7.66023521740108    2.25631351862743    2.31878746247605
H          -7.65045158619801    2.34702907126961    4.08656248401502
H          -5.29206546885159    1.34886144539730   10.68040627150823
H          -6.46505926938862    3.57460097093121   11.17612599387762
H          -8.98170838918679    7.94362440649592    9.60998638376677
H         -14.40816061883124    9.20632270197729    7.22989172838439
H         -13.78957986224567    9.18629243733672    9.75952186447684
H          -8.08636317071993    6.53175923936997    5.22963724955312
H          -8.68295432437704    6.61039044502850    2.70266401095988
H         -15.13798608262193    7.35573708510453    6.02474554547160
H          -7.01618127258181    7.38963465376447   11.16397478885553
H          -6.24771768287788    5.79940507083663   11.10132150378181
H          -9.07576649506839    6.39531820661631   12.11651963062265
H          -7.67901010465975    6.00593204380698   13.12690860030664
H          -8.36086447418274    4.78726627603492   12.04194494257402
H         -17.37380968674618    6.83297039357739    5.20473150834086
H         -17.66497388269222    6.72504140604478    3.46466191187149
H         -17.90193018511166    9.27262590299097    5.14074558867495
H         -19.25280639000794    8.30917578612291    4.53393640884863
H         -18.20036599761293    9.16354280808307    3.40463163833895
H         -15.77632671987000    9.06336300592735   -1.71870697826184
H         -14.43057309426312    9.41008650417992    0.45372835436833
H         -20.92463724124663    5.23088234637299    1.91698071258442
H         -21.15281195604351    3.74631446787530    0.95508901897211
H         -23.05232814198843    6.14703237069260    0.98114230880488
H         -23.36825446705123    4.55537532756548    1.68076737671539
H         -23.20424225123642    4.73717826088725   -0.07392316334335
H         -20.18244160036552    5.86336921935541   -6.32679806021927
H         -21.93359502572547    4.20075710512132   -7.24235835814643
H         -26.12229452669997    0.82800403791768   -4.65925581297910
H         -26.65247901707113   -1.11255506248029  -11.60637018169766
H         -25.81785601439737    1.33407353711757  -11.90277259598119
H         -25.04556477211526   -1.24940517801143   -4.63476325624202
H         -25.87454022858278   -3.69850471775960   -4.33673321359006
H         -28.64592839487226   -2.05138143170325  -10.83786737640200
H         -25.91281643880517    2.74815381014531   -3.00547918264241
H         -24.56069943926325    3.88643364107342   -3.09597688756981
H         -24.35176998901774    0.96592137481026   -2.21119295468023
H         -24.33738810865850    2.36756493987847   -1.13695974860894
H         -23.01237576796960    2.11576097514121   -2.27640653105815
H         -30.47499637431996   -4.95801827167706  -11.96909674744715
H         -29.26464631188086   -4.73582793336837  -13.22004496969834
H         -30.79589272275805   -2.48622985995488  -11.82325878170869
H         -31.06669878778890   -3.08935416473708  -13.45669111663445
H         -29.56378852640090   -2.25380082424943  -13.07308010433197
H         -27.15047029556651   -9.88374224312791  -10.86404180022766
H         -26.54194807139746   -7.55628298947704   -9.87116960655956
H         -26.05718824019216  -13.49410305631154  -11.05935935831848
H         -26.78097931678198  -14.88186863587198  -11.92825783663243
H         -27.88394146052925  -13.61051854011416   -9.36787335044825
H         -27.02473691249901  -15.15322829475187   -9.45218385640736
H         -28.60433362189499  -14.97889025222146  -10.22643365618025
H         -29.81293110749315  -15.06158565888768  -14.16588588278604
H         -31.19705842646490  -16.65302659377324  -15.70533244377279
H         -32.91236484781894  -15.30874371049143  -17.16182864567011
