314
 SCF done       -636.281200002264          0.000396587737
C          -3.42066231956849   -0.64135612201973    5.51389639789861
C          -3.47439334856993   -0.87714581498736    4.12550991000410
C          -2.27902575426582   -1.04932025022037    3.38545880998211
C          -1.01084490603524   -0.99589108705627    3.95381896491330
C          -0.95715695318803   -0.72830411778819    5.33743440015310
C          -2.15372824343839   -0.55307810399474    6.07642996385509
C          -4.62353979468818   -0.97985139697535    3.30599829835754
C          -4.34496356282832   -1.26059568743625    1.99967455404469
S          -2.62087163894488   -1.38306073956468    1.70753960198081
C           0.18787267635200   -0.59377758066138    6.15726720493325
C          -0.09903508295935   -0.36108187127372    7.47148438502004
S          -1.82320667224319   -0.27352048362401    7.76496428152837
C          -4.63039031690338   -0.52523313946319    6.30293924302890
C           0.17798047109922   -1.22441676996368    3.15837050632312
C          -5.75914114488701   -1.29313925429609    6.23997085741529
C          -6.74800730550398   -0.90633376886985    7.16595833359777
C          -6.38698454063863    0.16053079499033    7.92968526705718
S          -4.79188279837221    0.70347006034477    7.52577428575235
C           0.43140264625084   -0.80473790800112    1.88217366109529
C           1.67984995521318   -1.23301946804379    1.39041213976708
C           2.37936687010313   -1.99611819552094    2.27380475114875
S           1.50158567843029   -2.18948189981217    3.75397128156900
C          -7.15139667452157    0.82400932458162    9.02250491253135
C          -6.54348014252746    0.51001893505098   10.39098779394592
C           3.73735324132642   -2.58937115996096    2.12375422132938
C           4.76118778954307   -1.85746639188758    2.99438476510536
C           0.82292023046450   -0.20198456687151    8.54272730821651
S           2.52726210974387   -0.35844904680901    8.27879276893258
C           2.86253633672905   -0.07108256023232    9.96725424151271
C           1.69022280886721    0.15072402428333   10.66019312932453
C           0.54963328205168    0.07815107544455    9.86483221990614
C           4.20561882256996   -0.08735781624667   10.47508359217196
C           5.31298194656109    0.05494956376797    9.64812863098722
C           6.62670191058256    0.04598746132063   10.11768384013111
C           6.95280456967398   -0.11767143597107   11.45572634048255
C           5.84595011304563   -0.26189991986196   12.34435788603052
C           4.49931125043589   -0.26935737331624   11.86288720672699
N           6.07256347838883   -0.33865256862375   13.66240014352793
C           5.07504725148260   -0.49816663793423   14.49481460243020
C           3.74788580028948   -0.64980836619381   14.00058940497339
N           3.50102424988460   -0.50575597464420   12.72234540145363
C           8.31574043645368   -0.12968940911848   11.92232493008489
C           2.61131291864577   -0.96009170012127   14.88386755572017
C           5.38393725337397   -0.52254642414763   15.93456741112687
C           1.42971925796306   -0.21604010091671   14.83085339803395
C           0.37309298301621   -0.47703316616113   15.68270062357041
C           0.41796710158999   -1.49888835560343   16.64961707138114
C           1.60289652714135   -2.24035865736474   16.69701752410178
C           2.65804962825290   -1.97382440143483   15.83331010118317
C           4.66913302125471    0.22235171341753   16.86475552034534
C           4.92975059598691    0.16668016533497   18.22842077208968
C           5.94381546361683   -0.64737260722171   18.74321925550942
C           6.66956017203834   -1.39426469359473   17.79644818412935
C           6.40110150766043   -1.33492013415978   16.44197880563058
S           9.58600348430836    0.67162465411013   11.03505395921477
C          10.20071683484502   -0.52605072496957   13.21227806038879
C           8.81962905551615   -0.72100969125657   13.05497316107802
F           4.16058637433022    0.92862371844732   19.03529767764543
F           1.77187425153328   -3.24237962081966   17.58630188331805
C          10.74411483977734    0.21482110382211   12.20740873688167
O          -0.67347569972203   -1.63647393599048   17.40461552485173
C          -0.76418022329340   -2.65234865983086   18.40088398424744
C          -2.14378759625511   -2.53515096331365   19.02479651988056
F          -0.74053332583717    0.26152708814668   15.60129679457931
F           7.65028360271536   -2.18941247159637   18.24247095739991
O           6.30948947170182   -0.80655202359632   20.01653376296908
C           5.65684875192921   -0.10262425855494   21.07068231861953
C           6.33097596007704   -0.52419858868390   22.36460716500131
F           3.69695479008553    1.05208914549958   16.45229719192886
F           7.11039404944987   -2.10400413825734   15.61609163866764
F           1.32007843050013    0.79384049548626   13.96757741230023
F           3.74698856792599   -2.75484259700449   15.92496776118126
F           7.59488843066676    0.19245785215770    9.19785190208125
F           5.15257938943196    0.21861664026839    8.32361338118890
C         -20.50106948184963   -3.05698181012532   -2.31163683656786
C         -21.40510080714201   -1.98917707138649   -2.14477640208224
C         -20.92459109388828   -0.66272571266532   -2.02303265078418
C         -19.57295404542421   -0.33651622919350   -1.99901459305257
C         -18.66829610418328   -1.41372112705069   -2.09254029366326
C         -19.15043064129219   -2.73478899731532   -2.26557285556258
C         -22.81829160514406   -2.04869416389030   -2.07671413061223
C         -23.41525566434171   -0.82666180494816   -1.97653132957280
S         -22.24306614058147    0.47648718722117   -1.93508264961888
C         -17.25441021405960   -1.37618287379565   -2.02970443491662
C         -16.66443465570320   -2.59392870493626   -2.20383865320033
S         -17.84015671854014   -3.87050798745898   -2.43908505317339
C         -20.97200032213868   -4.40725132312046   -2.54220471392207
C         -19.13393438380639    1.04021128296980   -1.89686120009751
C         -21.99272806966856   -4.81666192812717   -3.35387153571254
C         -22.17642575767849   -6.21337552220916   -3.35586284015346
C         -21.30965286933867   -6.87467861163487   -2.54129820881332
S         -20.22614886611079   -5.77165330262721   -1.75925582753094
C         -19.66720863144457    2.04174279662761   -1.13494599412763
C         -19.01391160519822    3.27856719775811   -1.30129720845613
C         -17.99372207294269    3.23791821930615   -2.20091131837729
S         -17.80964129282436    1.64467649213838   -2.85526203439595
C         -21.18742342321129   -8.34064685854187   -2.30679815189130
C         -19.90094715846266   -8.89536538089387   -2.92143411034916
C         -17.06814786864620    4.33128489694805   -2.60950334094033
C         -15.64975318717435    4.08234748097853   -2.09246963306324
C         -15.27446375151372   -2.90244540067221   -2.19362886662556
S         -14.10447110935622   -1.75418270781829   -1.62932824232558
C         -12.80252810336950   -2.86950920336148   -1.93422954921527
C         -13.28254028294786   -4.05627355312441   -2.44324679242745
C         -14.66976787950545   -4.07954866676587   -2.57685548048877
C         -11.43617917974837   -2.54729392583191   -1.62401130492827
C         -11.08537516897827   -1.68447127673567   -0.59532645914793
C          -9.76153912799810   -1.44742153441674   -0.22561031491878
C          -8.67585519000186   -2.02857201163980   -0.86909353031268
C          -8.99351712961665   -2.87663408884529   -1.97333311887636
C         -10.35004209829762   -3.12060291854071   -2.34964145241336
N          -8.00968091901744   -3.49906044342937   -2.63454206740211
C          -8.28665811013367   -4.25549678232965   -3.66773528589393
C          -9.63018658929470   -4.38669910140329   -4.12260390244720
N         -10.61176124600805   -3.84951277776334   -3.44172316469379
C          -7.32366595349155   -1.82769623365096   -0.42447563252525
C          -9.98015986931570   -5.11568370415146   -5.35318689724677
C          -7.16194769332863   -4.93319197055724   -4.33329942851032
C         -10.99379443491352   -6.07732831067937   -5.35887818212881
C         -11.30827385444533   -6.78707142708719   -6.50238828235714
C         -10.63679875800495   -6.58750072318627   -7.72325387904664
C          -9.62517011434618   -5.62189483474229   -7.71102549114785
C          -9.31800305061881   -4.91092759837690   -6.55750135337040
C          -7.19691588479898   -6.27709427436639   -4.68526873784939
C          -6.15479207163569   -6.90211131609917   -5.35888861070033
C          -4.99602255279258   -6.20486722803165   -5.71555476670023
C          -4.96088461223887   -4.84670344007786   -5.34773414872909
C          -6.00391812655061   -4.23237444013078   -4.68096078308086
S          -6.97919786538651   -1.41945825672741    1.23580021191159
C          -5.00691132712517   -1.75686686936272   -0.38097302331852
C          -6.15575613729665   -1.96002822099456   -1.14376825490997
F          -6.31009431722627   -8.20985529226285   -5.65737346535499
F          -8.90339394046410   -5.34335578188270   -8.81783532956817
C          -5.27203860360559   -1.47081203315868    0.94090525744812
O         -11.04499027899701   -7.34329054111378   -8.74435826341885
C         -10.45954211800951   -7.22193219539343  -10.03858090107182
C         -11.18608626157440   -8.20099268620756  -10.94412115943827
F         -12.28257463592384   -7.70465570820998   -6.46503917794232
F          -3.87096014220978   -4.13788560021131   -5.66740050391670
O          -3.92125597016028   -6.66300072540472   -6.35975282687518
C          -3.83066364999527   -8.02220130585028   -6.78034762214479
C          -2.48538512206110   -8.18183316185425   -7.46672382601616
F          -8.25936523678253   -7.02879298014542   -4.35302611400035
F          -5.90580490353916   -2.93251841493483   -4.40154699507890
F         -11.65214964455944   -6.35339634110914   -4.23354397178980
F          -8.35382188458557   -3.97928578896435   -6.64131335134059
F          -9.56298794173390   -0.61579324210039    0.81137158103344
F         -12.03876500203661   -1.06551669775198    0.12038572502819
C         -39.00023167855868   -5.05918440302572    3.03867486049170
C         -39.05131308296013   -5.80041151186456    4.23264815675492
C         -37.86576502773618   -6.07561978170128    4.95139945022917
C         -36.60422283518491   -5.65132886802437    4.54128016355791
C         -36.54892783299172   -4.95070804770844    3.32066548062750
C         -37.73845829235674   -4.67408201767003    2.60275657931651
C         -40.19707537499519   -6.35980093058476    4.87185242553323
C         -39.89970688884171   -6.99287137408434    6.02404578681968
S         -38.21411427733150   -6.96678787293396    6.41058854064328
C         -35.40542126801245   -4.45480103275726    2.64874257514080
C         -35.69086015775432   -3.79253254736033    1.49070146160469
S         -37.40995148977498   -3.76123656186237    1.15459412573359
C         -40.20971587275407   -4.70401916182238    2.32100817335374
C         -35.42759533608825   -5.90082704728937    5.34776975190975
C         -41.37805750985829   -4.21290032979789    2.82945576255417
C         -42.35409182468222   -3.96495575821860    1.84299226867868
C         -41.94184470921746   -4.27511884396840    0.58422830420848
S         -40.31420771068364   -4.87158763928067    0.59184459283840
C         -35.11234708755117   -7.02255706174087    6.06269282646071
C         -33.90262782949236   -6.90922497276854    6.77523934287502
C         -33.29618538525834   -5.69974950639860    6.62819645533669
S         -34.21340737034870   -4.67168464552566    5.57951495106086
C         -42.68195997632748   -4.12705504389373   -0.70031342976907
C         -42.08436659758744   -3.01132387909205   -1.55947442486017
C         -32.00100311041486   -5.22967309890161    7.19412240032032
C         -30.92825719272581   -5.12222947130340    6.10819961095086
C         -34.77040881180098   -3.16666986455145    0.60492473984495
S         -33.06664589941664   -3.24667516254883    0.89437082651530
C         -32.73024307202266   -2.26951205377936   -0.51421364554189
C         -33.90745026402357   -1.93412247450530   -1.15414774555096
C         -35.04614220753344   -2.43893749070134   -0.53345864076778
C         -31.38640465471748   -1.89515143823846   -0.85240518002673
C         -30.27724922205058   -2.49849129090778   -0.26785458578627
C         -28.96107563154578   -2.13235988817785   -0.55060391409870
C         -28.63468018972353   -1.08512695006175   -1.39931513666132
C         -29.73942839235746   -0.44153604902697   -2.02979093930911
C         -31.08431851129915   -0.86332791948365   -1.79774301989081
N         -29.50036237927460    0.57064437666327   -2.87045085602603
C         -30.48459172234869    1.14492179161723   -3.51595835079733
C         -31.81432603301356    0.66570739457888   -3.35527229386021
N         -32.07000878520054   -0.29051165055462   -2.49631918806291
C         -27.27809713785789   -0.66583909270777   -1.63260155195924
C         -32.95505038941279    1.19071192183409   -4.12217516281668
C         -30.12996465115740    2.26036536547410   -4.40601213579025
C         -32.91160271940718    1.38721399790811   -5.50266374347428
C         -33.98240984774448    1.91975821771235   -6.19353569136793
C         -35.17955758937737    2.29102946007008   -5.55378534625444
C         -35.22563004954736    2.07213606533349   -4.17253575472376
C         -34.14408533661597    1.53471530159419   -3.48419672346863
C         -29.04322967247289    2.15170392283125   -5.27107729992828
C         -28.70817595017203    3.16028512045635   -6.16698725754217
C         -29.44299231768293    4.34890175818757   -6.24220464315360
C         -30.52098360096799    4.46098259391521   -5.34477299629150
C         -30.84945198703177    3.45426008398306   -4.45801426438717
S         -25.95259019726880   -1.78850987853783   -1.52375003502845
C         -25.43753643069683    0.67187196221599   -2.07003495339919
C         -26.82392579637880    0.59795922246152   -1.93897421193707
F         -27.64275681580392    2.94854944391607   -6.96585119907025
F         -36.32648550194205    2.37472907694109   -3.45513632010877
C         -24.80845976246990   -0.54061099893837   -1.89413458282851
O         -36.12709859061668    2.79984504384332   -6.34291507782338
C         -37.37257824560010    3.25015940830078   -5.81301032967140
C         -38.17317873203336    3.80078862761236   -6.98017721935530
F         -33.89099658648749    2.09394393022151   -7.51963597607820
F         -31.24759238752734    5.58758858954949   -5.36224716907590
O         -29.24841324015082    5.39160116527890   -7.05108628014993
C         -28.21782727730171    5.38422312719138   -8.03734024928745
C         -28.33081176692151    6.69194057128401   -8.80119049848217
F         -28.30963472667908    1.03934778167923   -5.28452067257761
F         -31.87524307977075    3.65645816479422   -3.61401041089635
F         -31.81727948989792    1.03106475736609   -6.19586681886484
F         -34.25964341860163    1.38203247956551   -2.16456767894567
F         -27.99260091776262   -2.81620715572242    0.08137834378970
F         -30.43782815105745   -3.49770306506534    0.61781864368717
H          -5.62739669656054   -0.83547275566995    3.66233489221658
H           1.19926576829756   -0.65403606503414    5.79901852207875
H          -5.86125507568332   -2.13740197813760    5.58164518375546
H          -7.69752349467191   -1.40342606257275    7.25845184341608
H          -0.23757024031138   -0.17466613441506    1.32446408663168
H           2.04519234080877   -0.98339234146783    0.40995725611916
H          -8.18618681853255    0.47676545989816    8.98864996910254
H          -7.14787303971800    1.90613918072468    8.86979555728903
H          -6.54760952250951   -0.56300644197964   10.56920203013194
H          -7.11363667246576    0.99646440708329   11.17841665719282
H          -5.51570136653024    0.86304753151644   10.43514484329314
H           4.03299501124572   -2.52705433979946    1.07425995737696
H           3.71275022052736   -3.64383700501716    2.41081316947345
H           4.80775266482201   -0.80582646928301    2.72096607525048
H           5.74791957283067   -2.29460619695432    2.86457644257336
H           4.48474485327879   -1.92859887324615    4.04390161652438
H           1.67548621821139    0.37723873660165   11.70664781238091
H          -0.45087714829283    0.22808522176145   10.22985530126890
H          10.76686436291785   -0.92108013775574   14.03635513322542
H           8.21548532462462   -1.29263062986888   13.72993027713328
H          11.76554950830330    0.51508482815287   12.08061468114439
H           0.01377283628334   -2.50444176964494   19.15814909668848
H          -0.63246774524586   -3.63893606332356   17.94310185593853
H          -2.26921515310176   -1.55240729707818   19.47015999340422
H          -2.26320228686550   -3.29409060693838   19.79198668006596
H          -2.90830729090823   -2.67057547956625   18.26518430067244
H           4.59235744591077   -0.36109090935072   21.09088650530179
H           5.75805120379919    0.97764207192825   20.91847637962759
H           6.23740730258884   -1.59788276900317   22.50031007618010
H           5.86406494202503   -0.01523239499387   23.20232479422744
H           7.38664444536364   -0.27027050357198   22.33476071702037
H         -23.37889210464386   -2.96586920656485   -2.08725830421056
H         -16.68104377276323   -0.48423471498941   -1.85420966600122
H         -22.56563853976133   -4.14172449355859   -3.96453303513922
H         -22.92953059145021   -6.70947530705183   -3.94243308299360
H         -20.47851514899418    1.89042062686755   -0.44622859920531
H         -19.29468136579355    4.17077120836861   -0.76997669691826
H         -22.05336575219684   -8.83982170448638   -2.74683275145153
H         -21.18567754622664   -8.54218594948944   -1.23247712902261
H         -19.88629774999942   -8.71660542347543   -3.99422813069082
H         -19.82946300298099   -9.96576704258513   -2.74556217897908
H         -19.03379656088498   -8.41020527400358   -2.47920031824332
H         -17.44621191335149    5.27566679702964   -2.21206584903607
H         -17.04326071955539    4.40483944525949   -3.70009207719853
H         -15.64926279813943    4.01002319780513   -1.00722763629179
H         -14.99232253161964    4.89634624063882   -2.38729694117856
H         -15.25773027971393    3.15325909083812   -2.50014366226743
H         -12.64516799677705   -4.88507486912839   -2.67953451228492
H         -15.22614078212880   -4.92388860317999   -2.94301886416581
H          -4.00593593018895   -1.81764155231707   -0.76971979214910
H          -6.14764847923435   -2.17959346597260   -2.19225825207863
H          -9.39176350541602   -7.46297065401425   -9.99045512622007
H         -10.57690970396417   -6.19741636632369  -10.40854744206435
H         -11.07161669830398   -9.21310637334157  -10.56675635833674
H         -10.77531253958143   -8.14411590921090  -11.94754824996096
H         -12.24515572342771   -7.96191183214689  -10.97676950563710
H          -4.64561227386782   -8.25443394286996   -7.47482019848245
H          -3.90125773096826   -8.68799639756127   -5.91309079979579
H          -2.41890315595953   -7.50831625244585   -8.31637637750545
H          -2.37022304025607   -9.20511810720664   -7.81090871896244
H          -1.68313510721757   -7.94466645088134   -6.77395844377529
H         -41.18917106768051   -6.29830694331613    4.46388084186618
H         -40.56966831375475   -7.49862317502031    6.69163079796744
H         -34.39662952202971   -4.58576234374221    2.99540033508828
H         -41.51922515807466   -3.99670948347512    3.87363107164609
H         -43.33033270128784   -3.57001669351916    2.06338199591097
H         -35.70801761435443   -7.91725648041087    6.04986672539449
H         -33.49792162937187   -7.70080964434093    7.38078622666396
H         -43.72790091161598   -3.90391492752401   -0.47901088593302
H         -42.64316380094105   -5.06663250106968   -1.25763070671399
H         -42.12123786000141   -2.06347451488204   -1.02730426967868
H         -42.63964883401167   -2.91147985058316   -2.48881573818388
H         -41.04619163337345   -3.23442802329713   -1.79462652678744
H         -31.67860603628432   -5.93358446982277    7.96432863386138
H         -32.13657308349082   -4.25035092247839    7.66042495542867
H         -30.76711781814696   -6.08977834620548    5.63843307186300
H         -29.98898135746794   -4.78312652594547    6.53754693301905
H         -31.23599812351212   -4.41437372453275    5.34189580150402
H         -33.92365959275147   -1.33871015643394   -2.04515610091984
H         -36.04886259194243   -2.27848548165008   -0.88795730192293
H         -24.89771737593881    1.57434660197681   -2.29590298125422
H         -27.48420594192253    1.43717109384033   -2.04480761628977
H         -37.19966122571010    4.03000543714255   -5.06354273829115
H         -37.90316524903338    2.41490748943405   -5.34295134018301
H         -37.63417657515577    4.61961672749333   -7.44805044697736
H         -39.13396670118469    4.16133380703207   -6.62570489935421
H         -38.33399821722467    3.02371938569363   -7.72204892114594
H         -28.35251229041399    4.53220858143262   -8.71233868468732
H         -27.23806920560288    5.30476163008865   -7.55373449478163
H         -29.30726623871211    6.76559605168134   -9.27135970695776
H         -27.56143130524759    6.73506834501871   -9.56602723543980
H         -28.20891465678746    7.53178781636771   -8.12307551600688
