138
 SCF done       -224.468978310231          0.000514998988
C           1.28089152241852    0.45730894689459   -0.01691806564334
C           1.55306020908411   -0.93343218736903   -0.03517227808813
C           0.57732974963922   -1.91243595960409    0.08158666004677
C          -0.75072271681598   -1.45859392950565    0.19112806102289
C          -1.03082851891494   -0.07176992970843    0.22372072872325
C          -0.04900092264139    0.91061649585251    0.11787848253008
C          -1.92558360761873   -2.24363123621557    0.21553048978697
C          -3.07718918682194   -1.51185276808271    0.28634545310360
S          -2.75119146966699    0.20891457378547    0.33275138928075
C           2.47230232238774    1.22128424273008   -0.10215262733010
C           3.60504769447106    0.46566682187102   -0.19393543447438
S           3.25740197207718   -1.25178157202488   -0.17078331970410
C          -0.40286019203744    2.31497724099881    0.12295568785243
C           0.89374293250397   -3.32641862319599    0.10268491694626
C          -4.40327786748172   -2.03099976917348    0.32536772364076
C           4.96167116614306    0.87584949309908   -0.30894916048339
C           6.05699357959394    0.04724602492423   -0.37740334681159
C           7.28245198383078    0.71226606047384   -0.49908457370214
C           7.12431955416506    2.09151267467041   -0.52759290854651
S           5.43872390497204    2.54211553141929   -0.39727637543358
S          -5.79912621414826   -1.02521948949616    0.54070310564256
C          -6.86104802292685   -2.41121226555196    0.47974962785902
C          -6.14475607268058   -3.58645168264555    0.29303260716896
C          -4.76727657958513   -3.35441945133551    0.21079306039610
C          -1.37216624247491    2.93363399164181    0.86295039663093
C          -1.49668925460954    4.30857694806402    0.58498411281568
C          -0.64193860476035    4.74783144261998   -0.37846264636918
S           0.35912129253299    3.45583328627026   -0.95217388251761
C           0.39646179603104   -4.28898766419767    0.93521002228395
C           0.93443626984438   -5.56859511584895    0.69160367991857
C           1.83211824640844   -5.59224978901836   -0.33070306705294
S           2.04296313977877   -4.01194329603036   -1.01038929254244
C          -0.46710294209690    6.12892882913266   -0.90853369322045
C           0.82035942744921    6.76721648760657   -0.38253248317772
C           2.62319357549638   -6.74276969159337   -0.84977913002767
C           4.09739527700350   -6.61867006877354   -0.45960249429955
C          -8.25926504997360   -2.21159790391779    0.62389733029623
C           8.10164548210414    3.11453515539631   -0.64302630138915
C          11.53633141270674    4.93904323416203   -0.99600180151615
C         -12.09376677433887   -2.88662179243773    0.93330691665116
C          12.73704030165334    4.24817088330817   -1.14289672986174
C          13.83669877715998    5.10249813250840   -1.22450591145360
C          13.53026326693482    6.44860289447635   -1.15005572758162
S          11.80564397127670    6.65880392559840   -0.97341961122538
S         -13.34854318066941   -1.68911677106897    1.05937824957028
C         -14.59765292767469   -2.91785393590070    1.12229400040840
C         -14.02192286069669   -4.17154523814566    1.04976012147505
C         -12.63089734523792   -4.17188644398676    0.94678100067262
C          14.36588521964348    7.58390592969117   -1.19598935147335
C          15.72478407717709    7.61705348601614   -1.31172907773936
C          16.55539998138827    6.48912226266231   -1.40788066329078
C          16.39525047394334    8.93846479393088   -1.34303069766601
O          17.72219363895209    8.80552194399885   -1.43335058327158
O          15.81139701777119    9.99382094930476   -1.28378677224213
C          18.49460238687317   10.00235992229237   -1.50191776716655
C          18.56335105046184   10.53472642013008   -2.92618161739791
C         -15.93117998051586   -2.47183987929255    1.23514484556030
C         -17.12386585862790   -3.14075542708217    1.29502281650297
C         -17.39803004654027   -4.59037853805313    1.26267916075556
C         -18.27913085568064   -2.33340490349692    1.40749683573002
O         -18.72179174718088   -4.79909216127208    1.29142815365559
O         -16.58794097254128   -5.48697695112594    1.21016580402871
C         -19.16989150603676   -6.15171500994042    1.28835865814137
C         -19.12379365505027   -6.75810725664725    2.68399662287608
N          17.24907255756082    5.57676402683404   -1.48934759354524
N         -19.19259214864528   -1.64574792680629    1.50416792587363
C           8.60886539610657    0.02507258345714   -0.58924065379352
C           8.53012175558906   -1.49465166472786   -0.51632786097546
S           9.79977865616925    2.77170181629054   -0.78952007168171
C          10.20353559483103    4.46302890638780   -0.87356350831463
C           9.05427008549958    5.22760252101398   -0.78934150528946
C           7.88829621922837    4.48053201403094   -0.66437755793506
C          12.90117279328256    2.76154123296488   -1.17567253846384
C          13.00151777902427    2.18981435524693    0.23981039135586
C          -6.78197536897898   -4.93741581194712    0.19184333868308
C          -5.79852426400569   -6.07966029489540   -0.02954052424810
C          -8.91826356365639   -1.00939357008358    0.80309266931595
C         -10.29727432736604   -1.13910406589037    0.92338652064694
C         -10.74634083340508   -2.44482472291668    0.84708590832076
S          -9.40020801636538   -3.52353214038709    0.61167156296682
C         -11.85922058412238   -5.44847576035600    0.83212830320380
C         -11.61162428484061   -5.81109940596011   -0.63338705451313
H          -1.91074014754411   -3.31536974357027    0.15730712837082
H           2.50457930204633    2.29539130954082   -0.08639545372873
H           5.95108139867349   -1.02127066559807   -0.33901239730076
H          -4.04324535892865   -4.13264645858370    0.06422616204322
H          -1.95577262145783    2.42884145832513    1.61146498007675
H          -2.20352523295286    4.94968781364293    1.08135103709180
H          -0.30051576925358   -4.07736762122397    1.72683516321881
H           0.66300813323488   -6.44209303216528    1.25810451556621
H          -1.32661445490211    6.73134293170803   -0.60709535239777
H          -0.43261349782079    6.10284892868593   -2.00055452911427
H           0.80236404588540    6.81508500011232    0.70399495450613
H           0.92818882808658    7.77566058565535   -0.77380712247050
H           1.68371294947945    6.18060991755832   -0.68877799083171
H           2.54419916977284   -6.78219847588053   -1.93910008406699
H           2.20942429033249   -7.66760224405950   -0.44233319976031
H           4.51725018394839   -5.70208904657356   -0.86782253703864
H           4.66262902109627   -7.46354280345798   -0.84476196672706
H           4.20121901181190   -6.59360650635954    0.62281818178993
H          14.84384550363463    4.74564226532225   -1.33944995308241
H         -14.60997898864706   -5.06995037121106    1.07568904368719
H          13.88118833153623    8.55146130139304   -1.13003823709809
H          19.48446470618803    9.71877629186883   -1.13877058518786
H          18.05091487128883   10.75093346806436   -0.83680905510874
H          18.94923651463712    9.76760865278058   -3.59344762680965
H          19.21863689419176   11.40027041966857   -2.96077401193691
H          17.57168421647025   10.82945083368689   -3.26131330782652
H         -16.02143046970355   -1.38981131760695    1.27870531557151
H         -18.54493596455287   -6.73303649479086    0.60143700464634
H         -20.19394479460305   -6.10548256257382    0.91297489682989
H         -18.09495142571370   -6.81665542530195    3.03135346577353
H         -19.54485241553030   -7.75914484788152    2.65987348886016
H         -19.69708925890680   -6.14593126251651    3.37609344582666
H           9.24999302964699    0.38942702175489    0.22023146534651
H           9.09121633133743    0.31423396629657   -1.52891613427925
H           8.08731146618378   -1.81476666031557    0.42371665890853
H           9.53130878813514   -1.91383264995845   -0.58167688070177
H           7.93987425743709   -1.89248178106341   -1.33820447334338
H           9.07668643275724    6.30269172784239   -0.82076444365606
H           6.90466616344492    4.90879084361576   -0.58802672052692
H          13.81855440795755    2.52866491765664   -1.71911338206650
H          12.06735284055004    2.29617846276803   -1.70378795190552
H          13.85838754877964    2.61658667705554    0.75569327444426
H          13.12114513004703    1.11039535249810    0.19994852029432
H          12.10561942140055    2.41786701531510    0.81201594567588
H          -7.50503537656630   -4.92394523915510   -0.63024328941917
H          -7.34954348467499   -5.12744237168069    1.10879688732333
H          -5.24401024811816   -5.94013176239323   -0.95445027397741
H          -6.34208251276118   -7.01895075781243   -0.09723294002148
H          -5.09597376723971   -6.15229635919468    0.79725405454847
H          -8.39703490715970   -0.06938848166132    0.84233692926776
H         -10.96701715067337   -0.30955890701546    1.06694799486379
H         -12.44016299851958   -6.24396431279198    1.30194654717426
H         -10.90644724041447   -5.36786838544626    1.35831830102340
H         -12.55889487383486   -5.93931507453750   -1.15167227653056
H         -11.04942451393314   -6.73890481448072   -0.70023557569733
H         -11.04754465894348   -5.02820514263616   -1.13447469121109
