162
 SCF done       -288.460466506775          0.000939770071
C           3.50101400057822    8.74640806407696   -5.76465464564568
C           2.64043188755607    9.73865039524037   -5.26154762960088
C           2.57784964800900    9.98523458819144   -3.86967387929618
C           3.32890261689092    9.28097182900432   -2.93332206310292
C           4.22106061150709    8.31692988574713   -3.43905805831921
C           4.28114124888899    8.06970092826995   -4.83196859977577
C           1.76857409870446   10.60446785007695   -5.98488689945510
C           1.06915549464634   11.43438169215067   -5.18517017367107
S           1.41896247258484   11.23460085873769   -3.50470463777821
C           5.13574259630164    7.50786053090135   -2.71863615181984
C           5.83821177161239    6.64237861724348   -3.50352206178772
S           5.41484095184079    6.79787786949559   -5.19788034313700
C           3.58031221986856    8.41628476856131   -7.17478442609552
C           3.19269609832360    9.49712688254425   -1.50693644482795
C           4.69736542555620    8.11751143976094   -7.90131594413681
C           4.40333671813454    7.78773981932392   -9.24130158515380
C           3.07480178777402    7.80760673380838   -9.55111109681406
S           2.15291567558264    8.26924174977613   -8.16265525286064
C           3.13523982044461    8.55542024169083   -0.51907000394276
C           2.98987071140555    9.12388130155078    0.76413577822809
C           2.95038502490062   10.48800411817428    0.77599431874553
S           3.07375734916064   11.09948201840502   -0.83681125232859
C           2.42205100403728    7.55904691625945  -10.86577031076869
C           2.23813913928823    8.86535932730644  -11.64230041230623
C           2.75672982443760   11.40408808145209    1.93318654996313
C           1.28128262360826   11.78128741772195    2.08746862571830
C           6.82421105235124    5.69479491958460   -3.10713387650428
S           7.36124009743151    5.58383332079592   -1.45993294121605
C           8.44141772949927    4.27140818534384   -1.85704565305390
C           8.37384331807518    3.97183181986704   -3.19792285143422
C           7.46807342040281    4.76969105851337   -3.89734344793553
Cl          5.62847507831067    7.38480883107615  -10.38228080228732
Cl          2.87908474371203    8.16471194712131    2.19073655121603
C           9.30018082910938    3.74178599185108   -0.84676243970514
S           9.84535427778200    4.82686155465998    0.39874092918744
C          10.86027840479595    3.60764111227478    1.12691857899286
C          10.74176062021223    2.40709319710634    0.43350626801133
C           9.84337625077639    2.48044103559991   -0.67830487780378
C          11.44756881409603    1.18745698801387    0.79292511075236
C          11.06489781388284    0.01489799968146    0.01995399461240
C          10.10701788332167    0.06716773089653   -1.03831345225557
C           9.45141893725360    1.30068829552323   -1.46135243190353
O           8.63201751157271    1.32550423540612   -2.36762831318924
O          12.30003461963771    1.13258644328378    1.67735736262897
C          11.55850535579363   -1.24986653509303    0.23379254140558
S          10.84773927640478   -2.38070094763102   -0.86457314912327
C           9.88352665935718   -1.15777878397186   -1.61827941797551
C          12.56504843767982   -1.67342179685666    1.24028056664113
C          12.73478038564879   -3.18398791204957    1.32490365701232
C           8.96001445330924   -1.47513469058842   -2.73717163552169
C           8.99945239783924   -2.93618811767665   -3.15979157016020
C          11.62068462396892    3.99763948411214    2.25957846550053
C          11.52867375200513    5.24718205401046    2.85794163412448
C          12.39524763390421    5.42659528671143    3.92567579490827
C          13.17820330187596    4.31411770583628    4.16180798252425
S          12.81880051135534    3.02122890028285    3.05869926235443
C          14.18866658185897    4.15868626561770    5.14946450301603
S          14.56546025617484    5.45092522573291    6.27230367670870
C          15.81479149501619    4.48735872464901    7.01187961605468
C          15.92475469201511    3.21883297083198    6.38691149654649
C          14.98083771319341    3.06425042011756    5.34569672821121
C          16.59048098372189    4.87464461677544    8.09731883766976
C          17.54572130523697    3.94315119629822    8.55423086698712
C          17.65023095296094    2.67566365857338    7.93358861545989
C          16.87090177189884    2.28264138000335    6.85054858473578
C          17.06406151500806    0.99019056013529    6.22646784479997
C          17.36788161945810   -0.19697075889318    6.83135672051290
C          17.55021787910185   -1.24739302337465    5.90767695579973
C          17.41311828348818   -0.88134100088793    4.60044204152697
S          17.02610296134023    0.79996836856204    4.49507489634204
C          17.48270450492320   -1.72758712584319    3.37796700467831
C          16.07893218351018   -2.11018433332268    2.90271590837005
Cl         17.92479283279463   -2.85372348850788    6.40300977721769
C          16.43751398592970    6.16122523587591    8.74578780017971
C          16.43591668682741    6.42878497994244   10.08512782390652
C          16.26257420086656    7.80108708079138   10.36394877414871
C          16.14657483126060    8.59141996800060    9.25754849355719
S          16.22781878907411    7.62433723725390    7.82570526769765
Cl         16.21227864526644    8.41567963177727   11.97223505773837
C          15.91194960642487   10.05946290325522    9.18217004641139
C          14.42119468361092   10.36619495382381    9.01974967652981
C          18.52048131233381    4.11621007408288    9.56422737271564
C          19.34169760497097    3.03731466318809    9.74421995513766
S          18.92609462492950    1.73276904123056    8.64937081618232
C          20.39735723734709    2.94290160487668   10.69841988111608
C          21.33200353489045    1.94644802762572   10.93216953614022
C          22.20333797409250    2.27171576334172   11.98002489813294
C          21.96031671500770    3.49876403643593   12.55508276412578
S          20.61899304380668    4.28646316796181   11.79407148956659
C          21.42518575144737    0.63740835920473   10.21401256216054
C          20.49728379449554   -0.40082594978447   10.84786786872239
C          22.68182488601933    4.08859200885338   13.62244571917178
S          22.25283681541546    5.69790151340066   14.25937908303366
C          23.55240952385523    5.52605106597442   15.37134080590134
C          24.18563168217755    4.29046895318117   15.17002914626548
N          23.69326741866864    3.51388975710519   14.20458465837827
N          24.04830243018468    6.30342856759636   16.33597340612415
C          25.06011676919599    5.73003048738995   16.91549863230675
S          25.48664594392916    4.11965219037939   16.28077693853753
C          25.79363358781066    6.32186433220504   17.97781451526123
S          27.14352321234048    5.52308839274043   18.72321144753677
C          27.37310189661113    6.85217907310110   19.78333271195115
C          26.46908049983650    7.85675131879531   19.58770055960372
C          25.56585866028246    7.55027321344969   18.55044415978927
C          26.46205775930294    9.14868018716288   20.34264010514122
C          27.10182775569176   10.26244434583822   19.51227623170684
H           1.68261030565941   10.60506757529712   -7.05534287097941
H           0.35328336181784   12.17857527183690   -5.47441628050398
H           5.28689727307389    7.57517881315114   -1.65660714013778
H           5.69823250056839    8.16250900080171   -7.51449331992493
H           3.14868054465048    7.49580763659305   -0.69568221284863
H           1.44891201984623    7.09032018991565  -10.70753643365767
H           3.04803621751538    6.87645052485317  -11.44414354136638
H           1.61214686629475    9.55437926504554  -11.07968603204081
H           1.76551092290045    8.66805328652691  -12.60082055084437
H           3.20174928227560    9.33691577930379  -11.81934710691594
H           3.34853088596138   12.30935386350688    1.78488974728304
H           3.10419361777950   10.90465197444179    2.83977150031754
H           0.92525638616138   12.28377794026550    1.19091299474915
H           1.15113559038662   12.44668025087005    2.93691292335416
H           0.67931512059669   10.88995750612604    2.24751170597285
H           8.96696097593459    3.20361535104417   -3.65529745299902
H           7.27892138662592    4.68138554913237   -4.95253177681990
H          12.27253385363367   -1.26358924895286    2.21189099202604
H          13.51967795654409   -1.19847582594992    0.99124776706969
H          11.79041854420657   -3.66164582280631    1.57921217200735
H          13.46529399665561   -3.43562104617364    2.08837235365098
H          13.07695271584355   -3.58631840570433    0.37279394199262
H           9.20885361456508   -0.82494503277429   -3.58190183583972
H           7.94603518656811   -1.19258908411867   -2.43593444751652
H           9.99973156405534   -3.21431587273182   -3.48606301783527
H           8.30894751821267   -3.10646244178120   -3.98155913506959
H           8.71630428157975   -3.58313936752353   -2.33180120265897
H          10.84053869475924    5.99963846864675    2.51303263129723
H          12.46429195947840    6.32972168117864    4.50645408391405
H          14.86897057430663    2.17455593888368    4.75425739928557
H          17.42349461479280   -0.33771207674983    7.89454367813904
H          18.05364825064803   -2.62973242534646    3.60628772756632
H          17.99676963846952   -1.18141138400700    2.58412197702256
H          15.56583925309707   -2.68044543554386    3.67389936342067
H          16.14066610334347   -2.71472557566047    2.00138754661426
H          15.49813198738135   -1.21560156707364    2.68879123064955
H          16.51153520429664    5.67767373843664   10.84950625165907
H          16.46138181725783   10.47345677939718    8.33443905203239
H          16.28385300970891   10.52235809141193   10.09838119390011
H          14.03897962983176    9.90506836769013    8.11189247540821
H          14.26349396935027   11.43989537492952    8.96034307691487
H          13.86226851520650    9.97805600059479    9.86779781797363
H          18.63829906699433    5.02501582640308   10.12568103944540
H          23.00100574068000    1.63670791232571   12.31960781572932
H          22.45525976195466    0.28169116129523   10.27520027682464
H          21.17083630769153    0.76058770217845    9.16044246823062
H          20.76548790466619   -0.55994340681818   11.88977643061942
H          20.57690817369184   -1.34632441296032   10.31806303759806
H          19.46389227582467   -0.06639682206084   10.80478040930671
H          28.16834667181946    6.81612002622168   20.50181222678590
H          24.76865573298979    8.19282177877673   18.22544966958840
H          27.01086027090609    9.02874112816984   21.27825320035473
H          25.43167788639355    9.42076203640586   20.57996404522842
H          28.13575542945640   10.01577351854209   19.28172497163228
H          27.08266145905283   11.20112845250816   20.06048096549055
H          26.56394919769863   10.39492841037968   18.57667867742625
