221
 SCF done       -410.367648120514          0.000816479105
C          16.80476695239733   -3.32315777225855   -4.69610489315309
C          17.79101706929238   -2.62622996399485   -5.41832008843464
C          18.12200885335037   -1.29615631828103   -5.06587517675174
C          17.53320176743069   -0.61572335262545   -4.00485475338890
C          16.54416700262078   -1.31059593341466   -3.28354560266111
C          16.20721968295115   -2.63864658360945   -3.64147720349932
C          18.59873394427226   -3.09499784099708   -6.49579822153259
C          19.47654688573363   -2.17142183569317   -6.93677552758620
S          19.39190752190146   -0.67208371518736   -6.08326871885673
C          15.74288621621696   -0.83080843069413   -2.21790813872080
C          14.83048389070765   -1.73789339754042   -1.76525022008535
S          14.92033310701398   -3.25417062013721   -2.63916329414902
C          16.40809949111928   -4.68049562823586   -5.01728887452141
C          17.90967508396329    0.73729854082671   -3.64712531358620
C          16.10575955945319   -5.68899146572874   -4.14649084970056
C          15.71542618654144   -6.86593529470534   -4.81388425529465
C          15.69884059466155   -6.79007574984062   -6.17471421656751
S          16.18324298431803   -5.20367315946031   -6.66488220164672
C          18.12638335299113    1.24918785459106   -2.39913903295076
C          18.47757123182354    2.61234832924831   -2.44309177348917
C          18.52267698177423    3.16470649294777   -3.68864880672198
S          18.13424205614887    1.95997222332805   -4.86743229779817
C          15.31488641817869   -7.84077532370616   -7.15816743551208
C          13.99882753340595   -7.50033018148359   -7.85902524984481
C          18.87566681185390    4.55975187610943   -4.07282230688070
C          20.17952037084602    4.60560783029223   -4.87047799826122
C          13.88675529191812   -1.57243588307404   -0.71206054602561
C          12.84898355304061   -2.40930366532963   -0.36095211692069
C          12.10273122700015   -1.94758783934018    0.72152465114246
C          12.56926038981239   -0.75103272097356    1.22773916366014
S          13.95124522021822   -0.18472523313897    0.33018728356168
C          12.06634429861048   -0.02091022930161    2.33428444733842
S          12.91049041705850    1.40259761678370    2.92643242774149
C          11.75156902804297    1.67087658993351    4.21771428004373
C          10.77975107336412    0.70157092893970    4.15254909395166
C          10.95305771675674   -0.24617561043754    3.11222570817637
C          11.90815195127440    2.73224940803611    5.14066852614384
C          12.95020297159827    3.63860703459052    5.20435734312415
C          12.82696344919721    4.54112257087795    6.25499001568153
S          10.74458804654428    3.01123275776517    6.40452694900580
C          11.68526663480170    4.34168633597224    7.00519807905961
F          15.39354329616191   -7.99079198777577   -4.14957987091194
F          18.74305532584181    3.31759474070190   -1.32760268668475
C           9.56837663425872    0.36220329061373    4.89651835401816
N           9.07247139849131   -0.77354278129465    4.26723909959462
C           9.84585649485940   -1.20731999945610    3.19610160741320
O           9.05226946724310    0.91015316286533    5.84372510037651
O           9.58923377232245   -2.17784114648224    2.52241094798221
C           7.88462131913298   -1.46823180961162    4.71396317431138
C           8.21096222197183   -2.46714279456542    5.81872666773113
C           8.87253109077329    5.88807625354260   10.84415308246033
C           9.94152000228905    5.80707616243053    9.92712786522185
C          11.07927665536648    6.64021046207259   10.07889813303651
C          11.23068306438800    7.54350920219676   11.12451614010554
C          10.15832485938077    7.62647704372953   12.03630957875177
C           9.01571658296054    6.80354469658694   11.88202435275544
C          10.08327256600636    4.92365421182282    8.83080336363302
C          11.25407533287633    5.07546229461965    8.14572473641177
S          12.25967876946496    6.33365320953005    8.83460900847905
C          10.02071461356662    8.51302503060613   13.12690677228898
C           8.84374151827914    8.38365172279989   13.80494522717671
S           7.82423898864853    7.14044770173357   13.11360012993401
C           7.67474279116794    5.08358814385021   10.71841312196731
C          12.42460132159510    8.34905215052589   11.27973092846990
C           6.93844624110270    4.51844108110096   11.72210491730343
C           5.79949263996723    3.85262665047439   11.23174624955223
C           5.63088980973083    3.89759519803969    9.87952009575516
S           6.92791764016383    4.79290626639445    9.16989494124224
C          13.17345435406655    8.95362310359306   10.30886166454503
C          14.26523291034620    9.66112292831238   10.84794688049731
C          14.39198121343847    9.60061670962269   12.20462711743058
S          13.11872479720731    8.63259739589532   12.85474787496623
C           4.52719529314404    3.32354825351383    9.06103987064880
C           3.65107546249309    4.42144296700148    8.45549866366468
C          15.38450482479239   10.27556080264034   13.08631630046347
C          14.73027781715460   11.38762668476443   13.91033499570285
C           8.47068666169815    9.14470967651422   14.94786535153261
C           7.27450134164839    9.17399140371857   15.63451215603830
C           7.28602821666081   10.06563739721867   16.70409382040548
C           8.49412250207862   10.72065438464181   16.85455697536932
S           9.64021217771080   10.22161874396804   15.64584869125943
C           8.85760535120650   11.68842795050594   17.82042378679049
S           7.71281741993617   12.28223078168211   19.01693704175987
C           8.89337532382839   13.36574633621391   19.74350316843672
C          10.08847485637816   13.24263558444567   19.07508699219716
C          10.06786336293485   12.31384897105657   18.00588338873976
C           8.56332377027117   14.20137872876832   20.83605551527330
C           7.35122687261465   14.31532112353038   21.49108823879391
C           7.37101881361230   15.24940009884572   22.52288615289808
S           9.75360972971266   15.27353188975798   21.51390309165290
C           8.59802999533495   15.86410949190483   22.66735295143184
F           4.94190890313414    3.20976933746658   12.04599500908814
F          15.12083947916323   10.35249571971425   10.07173156217476
C          11.43426487896982   13.80890691066945   19.16321719951616
N          12.15049591282097   13.18854512864897   18.14467381521144
C          11.39982125274786   12.28481045147885   17.40091292212612
O          11.89545701978075   14.62386593408079   19.93013769993751
O          11.82631938765192   11.63971380527096   16.46962410064988
C          13.54220328037779   13.47221539664953   17.86936193299375
C          13.69150074024540   14.46114080587659   16.71872844377510
C          11.49866946509105   19.19150506671695   24.98746388120672
C          10.36904152209844   18.39971522003493   24.68989259744151
C           9.16446779468923   18.55447456676966   25.42137275042867
C           9.00935003801022   19.48841627135852   26.43908200944697
C          10.13827401047146   20.28089400054521   26.73432287909326
C          11.34435243062170   20.12508453578900   26.00635399713679
C          10.23136857912837   17.44425067310486   23.65816590259247
C           8.99834493192508   16.86228400858617   23.59853348561676
S           7.92098749621320   17.48203238181777   24.83143326518998
C          10.26579494147904   21.25197447442419   27.75129134342469
C          11.49153290056473   21.84913324032310   27.80292847115761
S          12.58061589033383   21.21141657465133   26.59039137624663
C          12.74837433344481   19.04118496501464   24.27083276292327
C           7.75687918585223   19.65025662462179   27.14892317296671
C          13.62171958810439   20.01915161508441   23.88271707713925
C          14.73391252072043   19.49338941166591   23.19798781109656
C          14.75427367577210   18.13596835638376   23.06694718213350
S          13.34721663692313   17.46826003857768   23.81302732189645
C           6.87863587970417   18.68087409485402   27.54680889632452
C           5.76719783191164   19.22019316736365   28.22259816527579
C           5.75213700289901   20.57930356169071   28.33618807558606
S           7.16074546057091   21.23149299377932   27.58069403378189
C          15.73660498368908   17.27839353175946   22.34793494794593
C          15.13928542680238   16.72378030306889   21.05177940431949
C           4.77164090700559   21.45265290362200   29.03882130543288
C           5.37216275601840   22.04402979719380   30.31716168646332
C          11.85063624654955   22.89248101164511   28.70150837331712
C          13.06306990766299   23.52363885242354   28.88554047462851
C          13.01224390781509   24.52034396538454   29.85747310594421
C          11.75905131277674   24.66838789092745   30.42116485029562
S          10.62055089464363   23.54674119038738   29.73807968007844
C          11.34178296843399   25.57955948412294   31.42097625819009
S          12.45805013253603   26.70865123449934   32.17622857116712
C          11.20804696096639   27.40268322035662   33.20267331563825
C          10.01676390907813   26.77176075251622   32.94707682599780
C          10.08958665420070   25.75902352781397   31.95786877957782
C          11.50363883752425   28.44994856301304   34.11262292916278
C          12.72364002108823   29.05370835208126   34.32702535610036
C          12.66838505352526   30.05921668376295   35.29992801579189
S          10.27091886975811   29.13929214802791   35.13188924896390
C          11.41501542110186   30.21290742657822   35.81654439931464
F          15.70783003409116   20.28217890305625   22.70594079783022
F           4.78950430993919   18.44160340334622   28.72330150574768
C           8.63236840572541   26.85469574823181   33.41570902287185
N           7.94810607236249   25.89274413418362   32.67702623821348
C           8.75207091520587   25.19201687618652   31.78619976142582
O           8.12756942496525   27.57660773631252   34.24317005636012
O           8.35886943715221   24.31694560700895   31.04719427238125
C           6.53470400386738   25.62684549116274   32.83534729035708
C           6.29500823990955   24.37755218522003   33.67566474740394
H          18.52842274772768   -4.08387247481747   -6.90824570687607
H          20.19235952062066   -2.27069189604709   -7.72907854465021
H          15.81197832442304    0.16393479463880   -1.81695317047414
H          16.18729430833175   -5.62150421114512   -3.07790444994432
H          18.08543233178470    0.68018929554446   -1.48896080321609
H          15.21631527004864   -8.78874225361096   -6.62484474660422
H          16.10437601574184   -7.94663862588441   -7.90689177487878
H          13.19418378240433   -7.41302455050230   -7.13258269375807
H          13.74158510294760   -8.28081362928118   -8.57038033807672
H          14.08860848718145   -6.55659751632541   -8.39281065063315
H          18.97544100764454    5.15219110261166   -3.16084597962276
H          18.07018992061489    4.98814584485247   -4.67529569741903
H          20.99989532737327    4.20441264997460   -4.27989598406314
H          20.41607934284294    5.63092415200142   -5.14243590993482
H          20.08565930468968    4.01502799685409   -5.77914835741439
H          12.64568598852206   -3.32501444801033   -0.88720669013076
H          11.24911327450929   -2.45500620115606    1.13337830403158
H          13.76812614370598    3.62601619091356    4.50549146686971
H          13.53725900801781    5.31880293112814    6.47314919894417
H           7.46453077078154   -1.98191565445888    3.84602805193312
H           7.18118491940366   -0.71568948136906    5.07875280963905
H           8.92171643290280   -3.20727379943895    5.45815747619696
H           7.30486070894260   -2.97664843101992    6.13406246766006
H           8.63950158282613   -1.95124259075731    6.67488823449964
H           9.35726641228785    4.18252826918503    8.55140031597774
H          10.74990102506222    9.25006898134687   13.40642791739973
H           7.20361183239894    4.53625484063752   12.76242812791490
H          12.94438781755245    8.94006882819201    9.25985078144862
H           3.92335456816630    2.67869162674367    9.70313495978270
H           4.94894226035573    2.71444392280001    8.25743351290743
H           3.20516838855526    5.02759117194145    9.24078600851126
H           2.85417133800932    3.97999454372559    7.86284762838466
H           4.24654474556637    5.06747912835923    7.81407354156397
H          16.17484616746342   10.69426609061816   12.45930747197334
H          15.83146463847150    9.54214822188663   13.76238571391668
H          14.29837843458934   12.13954331837885   13.25355039981896
H          15.47370215457848   11.86673742606408   14.54240830697578
H          13.94050434049787   10.98672326577470   14.54228427300991
H           6.42882578312991    8.57016376066513   15.35673899613475
H           6.45023879580352   10.24031279609835   17.35877778604713
H           6.49025523066222   13.73204789067135   21.21512355190175
H           6.52725948502942   15.48119346222941   23.14832662495988
H          14.03154681933129   12.52721517944926   17.61906110160642
H          13.97068811179389   13.88244292996825   18.78690974526988
H          13.25224999950733   14.04893371687534   15.81349020190352
H          14.74426362238841   14.65892782320476   16.53816640672279
H          13.19559396952717   15.39842342555671   16.96038473050313
H          11.00362683514745   17.19311332177195   22.95534671194198
H           9.48924534830783   21.50856463667871   28.44703108455817
H          13.46991103740677   21.07164123044413   24.03211300397637
H           7.02650489014471   17.62606820035979   27.41014731143873
H          16.03783711951798   16.44744816253298   22.99080582282212
H          16.62035022056613   17.87934410490117   22.12189305027737
H          14.25409889549868   16.12617095960549   21.26040696086902
H          15.87049505280488   16.10053608433917   20.54294317030743
H          14.85596739772924   17.53752790636412   20.38781876856595
H           3.89071505860881   20.85543840944058   29.28436229382191
H           4.46495019334185   22.26553992574432   28.37585286779197
H           5.66510980482301   21.24862913663648   30.99887736244540
H           4.63801305265316   22.67251285229458   30.81498493591250
H           6.25015964110558   22.64512470347436   30.08985816634462
H          13.94649384044574   23.26173085018806   28.33063205755415
H          13.85125967227894   25.12685545156425   30.15038250284290
H          13.61362066894942   28.76942823590482   33.79365661436959
H          13.51709307205416   30.64403208997759   35.60560009978441
H          11.09930764860800   30.90712928558718   36.57036965971882
H           6.10443144714629   25.49659355717457   31.83855745618446
H           6.09888082210042   26.50567621582682   33.31610472548059
H           6.73710906796331   23.51130773286635   33.18922685703360
H           5.22770808181667   24.20920081366503   33.78867680705868
H           6.73718627481051   24.49611385621710   34.66230214302218
