242
 SCF done       -440.588278977631          0.000840740152
C          -0.69414098560055    5.37548704093787   -3.68790276871806
C          -2.03061831937666    5.71903810897036   -3.96300355387804
C          -2.38427657488331    7.07211509836787   -4.18123300683314
C          -1.47153093993702    8.12084339279885   -4.12146703902788
C          -0.14521645575937    7.78141861526052   -3.79852201173751
C           0.21023786753611    6.42838456220743   -3.58664433451119
C          -3.15354204793455    4.85792364775116   -4.05528194034130
C          -4.31158583008392    5.49940655024021   -4.37699965112074
S          -4.07764840038064    7.22587976770986   -4.56648582670577
C           0.97455997835683    8.64767506415381   -3.62721202107274
C           2.11191134764049    7.98583161115145   -3.33468776948101
S           1.91002391204700    6.27261750118456   -3.23497121057319
C          -0.29178986235372    3.98962127418409   -3.55504777932844
C          -1.89013351661751    9.48267216880155   -4.39266598062123
C          -0.67256201149694    2.93215479740964   -4.33224353172791
C          -0.06485668498040    1.73029037661427   -3.92146269993511
C           0.76134079661004    1.83250051936233   -2.84210724187988
S           0.81419730323867    3.47791326984935   -2.31077011525975
C          -3.04856837056118   10.09348726384747   -4.00488950813760
C          -3.14175596577025   11.41106436972269   -4.49357004493715
C          -2.09554753306542   11.82667873773858   -5.26157288573928
S          -0.93264313757880   10.55148977387482   -5.38253484023118
C           1.56874922146880    0.76551923534311   -2.18803352857115
C           3.06508353883095    0.97811373702448   -2.42458250084818
C          -1.88212874268684   13.15635457838122   -5.89792213517878
C          -0.71232191163799   13.90388938317833   -5.25646273134323
C          -5.60590396444741    4.92908486097289   -4.55654862960555
C          -6.74595772112036    5.53918215725123   -5.02271534786397
C          -7.84123239679617    4.67243494447180   -5.10256736171394
C          -7.55404098088342    3.39738492104857   -4.68282799377236
S          -5.89655363273112    3.25806343980506   -4.18282878798341
F          -0.29012344362402    0.56368363784301   -4.55499119049321
F          -4.19618648318529   12.20153757739340   -4.22045944222234
C          -8.46075580936737    2.26599926131281   -4.62824013742997
C          -8.45126680828908    1.38578105736007   -3.54743814432228
C          -9.34073803100349    0.33314589771111   -3.46036606041561
C         -10.31192287428617    0.10338565882315   -4.44143709136778
C         -10.30664364927421    0.97354030910242   -5.56061360805704
C          -9.38201321032250    2.01725341648742   -5.66065734114426
F          -7.57162397597406    1.56914539084592   -2.54504805057544
F          -9.24127013926237   -0.46865190738770   -2.38497943590315
O          -9.37312056458191    2.79357180070060   -6.80043492373048
C          -8.24800664905913    2.60598686465583   -7.65471110011834
C          -8.12502457242105    1.18067117660712   -8.17855014184219
O         -11.21044189388718    0.68948353067946   -6.52695083842201
C         -11.81993778735382    1.71890844655668   -7.30061952598437
C         -13.21311601112037    1.24401901453253   -7.68491318652889
C         -11.26531436625139   -0.97467742120126   -4.34569454953282
C         -11.54549931716268   -1.79295329675136   -3.27014609055220
C         -12.52805035723932   -2.74893566268297   -3.53165791390784
C         -13.01314001939503   -2.68616985942071   -4.81735583578977
S         -12.25598542397118   -1.40333730374548   -5.70737517196772
C         -16.56918298955397   -6.31321831704796   -6.11064505946385
C         -17.18162353659490   -6.51349728000634   -7.36392175367599
C         -16.84197700346142   -5.68302858851685   -8.45990989284086
C         -15.93169535494928   -4.63429342845717   -8.37208778094019
C         -15.34349993625474   -4.41728704354734   -7.11049590145634
C         -15.67267219693354   -5.25628739713940   -6.01683998383461
C         -18.14603170540202   -7.48884358914188   -7.71878348585090
C         -18.50088146361519   -7.45573623548860   -9.03629298233656
S         -17.67157544583151   -6.18359647947126   -9.90697784275170
C         -14.40424530969720   -3.42607750934747   -6.74260398851062
C         -13.98551996593822   -3.51224023994301   -5.44732988372603
S         -14.76759246708125   -4.82315061678125   -4.59018657622463
C         -16.84842212431059   -7.19140241534768   -4.99117672844082
C         -15.60817777910464   -3.82491558601680   -9.52985428276981
C         -16.94073599904906   -8.55401049016758   -4.99426708640922
C         -17.22125899144632   -9.06612317795160   -3.71241694496266
C         -17.35888093361340   -8.13415180912923   -2.72772506013168
S         -17.12077879245746   -6.55457054767787   -3.39303181676646
C         -16.45371399486318   -3.39347068992617  -10.51287616423355
C         -15.78337906445890   -2.64293724032017  -11.49789706626960
C         -14.44084319054221   -2.49897262994824  -11.31240420296491
S         -13.97454193363209   -3.31029314545654   -9.85775031728044
C         -17.62988183961728   -8.34783697291078   -1.27876165588196
C         -16.43847151293437   -7.92055582518275   -0.42075957891844
C         -13.46040016676892   -1.74971735595484  -12.14707018049842
C         -12.83428630323553   -0.59072535947050  -11.37032942087484
C         -19.42122149289767   -8.30729551554492   -9.71756170097400
C         -20.34538404540886   -9.17014358115673   -9.17154384542422
C         -21.08121947698707   -9.86684922837695  -10.13117203576359
C         -20.73188372561629   -9.55999278166821  -11.42863623508139
S         -19.47668185296013   -8.35328526848484  -11.44687361215386
F         -17.35148430318257  -10.38762737716241   -3.48444475096603
F         -16.42861027532210   -2.10034359825388  -12.54652051557409
C         -21.24169592017108  -10.11855849870743  -12.65966555693477
C         -21.04802783370356   -9.47402655577804  -13.88562492734374
C         -21.47646291929518  -10.01273856039688  -15.08136822498633
C         -22.17412082597781  -11.22212724008312  -15.13869295297338
C         -22.45174105560688  -11.84555049545765  -13.90504718779244
C         -21.94874514078299  -11.34541298367856  -12.69881342955076
F         -20.40782436184782   -8.29125235342215  -13.93340377483328
F         -21.19432923684247   -9.33770798745813  -16.21246222189581
O         -22.13591579509202  -11.99323125460382  -11.52367055616449
C         -22.03945457195119  -13.41555706268881  -11.47598227096250
C         -21.36514307073245  -13.78719830495548  -10.16277755339382
O         -23.24852525432489  -12.97236244401020  -13.85842565823252
C         -24.63773492492190  -12.71922859463936  -14.05130407694673
C         -25.25100379309579  -11.87751382279570  -12.93933393777741
C         -22.57045559673514  -11.80508345110595  -16.40121502805979
C         -22.82464297843169  -13.13047995812724  -16.67786698926242
C         -23.16480825916185  -13.36719008827822  -18.01102216904004
C         -23.17175999743483  -12.22572842226287  -18.77881581266313
S         -22.74234591365113  -10.83567266284960  -17.83634187061043
C         -24.53320487190681  -12.93622489795528  -23.78498504754501
C         -24.50716324857452  -11.99435984433569  -24.83261888153228
C         -24.05993591749098  -10.67332989938978  -24.58730359803725
C         -23.61543456460220  -10.23230461506189  -23.34511067352473
C         -23.63933505642338  -11.17632608006947  -22.29946994275744
C         -24.07898905188663  -12.50039486842332  -22.54612223033336
C         -24.82591352009178  -12.19916962811779  -26.19780798851956
C         -24.65114301814979  -11.09236227349190  -26.97474089937965
S         -24.07822038287481   -9.72092426312995  -26.04647951435850
C         -23.30534310194157  -10.97993378296927  -20.93815991182525
C         -23.44833477000871  -12.09712913832265  -20.16969012532337
S         -24.02523109959935  -13.46653276135529  -21.09639023291394
C         -25.02632589395562  -14.28214292444408  -24.00027805741890
C         -23.12818878769242   -8.88039373332327  -23.16176832586211
C         -26.13330863269515  -14.66781948612600  -24.70144769935319
C         -26.30461927211586  -16.06579657070885  -24.68899215756309
C         -25.35791355953057  -16.76467330831378  -24.00111966437275
S         -24.20194289439402  -15.66440410458078  -23.33244048757276
C         -23.61048133586201   -7.73002094148667  -23.72007905407433
C         -22.84829752237654   -6.60440847695750  -23.35342449998175
C         -21.78049882951234   -6.85690454548536  -22.54443992846667
S         -21.70993711836524   -8.54999461046548  -22.20243485145174
C         -25.23831742902975  -18.23927447756331  -23.82871389758874
C         -24.03145006282039  -18.79528611038534  -24.58603175657920
C         -20.80591783604721   -5.89400478179782  -21.96060910892880
C         -20.93645686373423   -5.82102825402472  -20.43840065389896
C         -24.88393344889511  -10.95711625784576  -28.37338563096838
C         -24.69671646915588   -9.84268467385664  -29.15765851740210
C         -25.02270526865069  -10.05320846435828  -30.49957208714542
C         -25.46925535087546  -11.32784754190272  -30.75927718127583
S         -25.49240046163061  -12.28607422534157  -29.30941141850442
F         -27.34040692593488  -16.66483302822104  -25.30458078200372
F         -23.15530439964292   -5.36488991716722  -23.77972843759346
C         -25.90584506108464  -11.85945330922622  -32.03368094270821
C         -26.90844185287312  -12.82598495559586  -32.11512636072496
C         -27.37583221734670  -13.29343451961522  -33.32780555642081
C         -26.90198182099957  -12.79845756448400  -34.54738585720854
C         -25.86416456222920  -11.83724309749809  -34.47683227507967
C         -25.34986427481604  -11.41400480546241  -33.24778256949892
F         -27.45982852788314  -13.31784923588633  -30.98902074123073
F         -28.32696943430842  -14.24438476660496  -33.28735413273940
O         -24.26637156961349  -10.55860777255057  -33.24316931314522
C         -23.03845571916792  -11.15451646669942  -32.83476300223361
C         -22.57883284424652  -12.27118310163427  -33.76387526157045
O         -25.37926328415605  -11.39725114079970  -35.66222636412304
C         -24.95599262316617  -10.04558209985301  -35.81490042194800
C         -25.29199126416939   -9.60579181890842  -37.23204676448072
C         -27.42546358675467  -13.24342413584911  -35.81802071751565
C         -28.52468597659836  -14.03202051038276  -36.06816602847917
C         -28.74824744097738  -14.26314497661292  -37.43490857938419
C         -27.81926267793173  -13.66045990447852  -38.22458931448924
S         -26.66409511525925  -12.78252327166865  -37.31478992286061
H          -3.11236242522715    3.80007779668056   -3.86947582012152
H           0.91962051206869    9.71683226591910   -3.71173931917143
H           3.08591898985577    8.39792484786516   -3.15738784443390
H          -1.31792373478265    3.00370304921524   -5.18789403523182
H          -3.79300903764678    9.64984385293812   -3.37096001689611
H           1.26079586293193   -0.19862445612734   -2.59825332015537
H           1.37032931059027    0.76282019356893   -1.11312672669401
H           3.28643189763587    0.96467889913658   -3.48949037997192
H           3.63662522175351    0.19025825520766   -1.94092751750049
H           3.37766339231653    1.93741105221519   -2.01791008257572
H          -2.79946658524341   13.73863062124548   -5.78835034160892
H          -1.68317982164876   13.02431146419529   -6.96470881392898
H          -0.89719022079139   14.05838921474582   -4.19585338005725
H          -0.58138770545927   14.87292775262887   -5.73081129483943
H           0.20660813689141   13.33270142886893   -5.36967071984294
H          -6.77647370503901    6.57801434450077   -5.29938418661881
H          -8.81653677167471    4.96372099371555   -5.44745851128771
H          -7.32489613685021    2.89170951676688   -7.13628031477198
H          -8.42231041793646    3.30720771057439   -8.47373422958152
H          -7.94068391669800    0.48928823501992   -7.35833924975217
H          -7.29391067250417    1.12452741411882   -8.87590883995896
H          -9.03487403120370    0.87554838067678   -8.68986276848705
H         -11.22570915161185    1.90622150602049   -8.20104544753061
H         -11.86983066337442    2.64370267544890   -6.71836297399291
H         -13.14621900362856    0.30322268659608   -8.22343211818528
H         -13.68885447779165    1.98704979001689   -8.31837007721944
H         -13.81956204876221    1.09016938534392   -6.79681256440278
H         -11.06588545737987   -1.70999183291247   -2.31382813221038
H         -12.87205357647859   -3.46919539104910   -2.81040170399419
H         -18.56389254256929   -8.18783089075713   -7.01910647450678
H         -14.03792846139208   -2.66294807505915   -7.40352311205575
H         -16.77219731023220   -9.17535238803540   -5.85415249556428
H         -17.51386493748703   -3.56245447528222  -10.52843076135205
H         -17.84166330868190   -9.40765372471687   -1.12155870119368
H         -18.51129166907562   -7.77294436191430   -0.98231125835052
H         -15.55436387241283   -8.49537297105897   -0.68662201141612
H         -16.65631961886466   -8.08443922278656    0.63130853667554
H         -16.22427722865028   -6.86518359723975   -0.57402357984784
H         -13.98143485365202   -1.37087796219358  -13.02888490804319
H         -12.66972733614040   -2.42736624780649  -12.48091555961812
H         -13.60366221937729    0.10334885103742  -11.03918269032185
H         -12.13080545408829   -0.05403773505449  -12.00148679801227
H         -12.30403205324086   -0.96688684554341  -10.49775077758227
H         -20.49377867861031   -9.28152478024009   -8.11288176952000
H         -21.85848049705138  -10.56350124334353   -9.88635019425963
H         -21.45600346856476  -13.78062765165043  -12.32594098899516
H         -23.04030555866619  -13.85711027646300  -11.52747983231316
H         -20.37565068836513  -13.34063845439383  -10.10904896461211
H         -21.27385651242694  -14.86715745398603  -10.09160658641941
H         -21.95405016491735  -13.42562415324287   -9.32425186266841
H         -25.08803482616943  -13.71418238688642  -14.07465920674873
H         -24.80144604576452  -12.23338447034337  -15.02118182362295
H         -25.08559685789000  -12.34285521047594  -11.97092332559163
H         -26.32017956669385  -11.78293856135462  -13.10690570228423
H         -24.80873582767998  -10.88328151923263  -12.92519207834280
H         -22.74863391349802  -13.90454324738529  -15.93694960782695
H         -23.39016144809559  -14.33878085379070  -18.41345627881974
H         -25.14909926961248  -13.14067146095020  -26.60286712235830
H         -22.97494209650333  -10.04446770312603  -20.52582397217852
H         -26.82422567463345  -13.99422805637041  -25.17332037480761
H         -24.48923179701264   -7.66757105922279  -24.33394706706993
H         -26.15477460206933  -18.70317725171829  -24.19959774480691
H         -25.13693931324345  -18.47534040673462  -22.76630904957305
H         -24.12389956069668  -18.58938355928519  -25.64986903075004
H         -23.96408002181170  -19.87082817543067  -24.44511535978341
H         -23.11487918334020  -18.33644395228774  -24.22185843946702
H         -20.99171813367636   -4.91093825590625  -22.39864624297965
H         -19.78875309915312   -6.19969169908941  -22.22015675275757
H         -21.93813637307072   -5.50355221188854  -20.15802745522405
H         -20.22168390896037   -5.10866461857672  -20.03545349343092
H         -20.74484816993726   -6.79524701753806  -19.99409311904306
H         -24.33763140223122   -8.90894788502462  -28.76282176684575
H         -24.94732981720229   -9.29823412307798  -31.26038292018010
H         -23.12441811097202  -11.53545499028187  -31.80969488132212
H         -22.32716587983394  -10.32561943385298  -32.84359305974983
H         -23.28458382338360  -13.09940978979261  -33.74201345793627
H         -21.60639647985602  -12.63172047791494  -33.44046607731929
H         -22.49944061632680  -11.91260825839428  -34.78710622432477
H         -23.87617591938932   -9.97743000369057  -35.64525953239546
H         -25.46289765442022   -9.41046428276859  -35.08240485568783
H         -24.80906082269562  -10.26464246724283  -37.94788026136521
H         -24.94517874169050   -8.58839286626772  -37.38910376168253
H         -26.36524144790005   -9.64710122596607  -37.39594444021817
H         -29.16579792049378  -14.43264973438474  -35.30710976898537
H         -29.56479502986327  -14.85439817104482  -37.80899478550130
H         -27.75460111966908  -13.67134696111506  -39.29468497643093
