224
 SCF done       -420.980084119716          0.000679064947
C          -0.89398207068316    5.51917958517991    5.82844661210101
C          -1.23986448069555    6.16070817579068    7.03132739528731
C          -0.24139455183070    6.76767220138295    7.82699885938369
C           1.11032602219395    6.77324278042204    7.48788233879390
C           1.45923682507977    6.10209753730652    6.29992394874444
C           0.45773288245271    5.48745937282508    5.50785966117059
C          -2.53381256459060    6.29106611514191    7.61775391710635
C          -2.52111985107991    6.98664627951936    8.77184717871586
S          -0.94218168053536    7.51858989026481    9.23687815121665
C           2.74834439379734    5.91875783116737    5.74430198117921
C           2.74989892645237    5.22532753908899    4.56973039455578
S           1.13711532986178    4.74488365603510    4.08543987795468
C          -1.90927103199233    4.94179088981168    4.96768357025147
C           2.08822012417508    7.44509855248328    8.31946171809247
C           2.12407806131514    7.50683934020076    9.68375529054230
C           3.18516164008721    8.27801184545172   10.21081255614685
C           3.94444848886940    8.81504078062607    9.21278463226736
S           3.39129806412514    8.37818133706243    7.62979955033770
C          -3.10254432737877    5.49082321296052    4.59611515199172
C          -3.24936321917412    3.49230517997391    3.48646467780531
S          -1.70364939300043    3.36318604763443    4.26042705549164
C           3.88223954937152    4.88734070300423    3.77663515403582
S           5.46694484727272    5.43950484088852    4.22577536260730
C           6.17341224484334    4.63883334484054    2.85251409709196
C           5.20996432998634    3.99454552861861    2.10406805979316
C           3.92296232666884    4.13758076314726    2.62187369562602
C           7.58925143161895    4.72233806758003    2.65477442666604
C           8.31192137523690    4.07391344880552    1.65962811282163
C           9.70506832895240    4.16592088915523    1.51492069355090
C          10.51919846199830    4.92426743231639    2.34659779677161
C           9.80331745539710    5.61392843538778    3.35273089160632
C           8.39544418501159    5.51051320986190    3.51009272206761
N          10.25205627476239    6.43634427915311    4.30780376948920
N           9.18473965879611    6.77957015822559    4.97207600663931
N           8.05734078227074    6.27256627850784    4.55906818771975
C          11.94552976746833    5.02591548366539    2.27474061096832
C           9.24769677394184    7.68411118596701    6.08635799373192
C          10.34191754452447    7.26147395179897    7.05699720511261
C          12.84230608951448    4.41140281919526    1.42563182692043
C          14.17169582060266    4.73478826610062    1.69971911509414
C          14.31100436142732    5.60578492662295    2.75740353877039
S          12.76654470350963    6.03442296396057    3.42842977733624
Cl          5.32650331000299    9.80867418382008    9.39553790867727
Cl         -3.83230240470779    2.21196195370120    2.51270382860950
F           7.67698951292367    3.28975204018244    0.76632097812472
F          10.24564660208468    3.45913894904269    0.50296559004526
C          -3.87953560032200    4.67570588626072    3.74031823993790
C          -5.23429499280635    5.04888620207841    3.22829757738153
C           3.39735113392392    8.51305003541029   11.67185733411286
C           2.50410056021137    9.65227070931816   12.16554498002472
C          -6.31651121759497    4.69135836178611    4.24840310181414
C          17.30376143393784    8.23445247358073    5.77075205645806
C          16.89368076710473    7.35991611273082    4.74306328075001
C          17.85394909642300    6.67256584617315    3.95975813664161
C          19.22562808267567    6.79072332917747    4.15703213805265
C          19.63582453622583    7.67732790567020    5.17292310234327
C          18.67687853620519    8.38445489129206    5.94006977159375
C          15.57357772119618    7.04349384583909    4.34722649025105
C          15.49936438546149    6.13358936642124    3.33346904371172
S          17.08587541297145    5.63421660717654    2.78688963832906
C          20.95709133873535    7.99068846685854    5.56608703430982
C          21.03396128472327    8.87657341038416    6.60030618663902
S          19.44943123564071    9.39432504698850    7.13550251114175
C          16.35889311417833    8.91966042434410    6.62976132272922
C          20.16600326290602    6.02304444984056    3.36538470797740
C          20.08266893857561    5.72185902766925    2.03590042372750
C          21.13255426120230    4.91012117050455    1.54757192236162
C          22.00696268463723    4.58876420172399    2.54349799035184
S          21.57544373469542    5.27720033965117    4.07422129462966
C          16.45640210642813   10.18091213692960    7.14629781781706
C          14.48811458342773    9.53906317491979    8.12671732604342
S          14.91664036977436    8.12983756606651    7.21555803902561
C          22.22754378118098    9.35174472986388    7.21190869874985
S          23.74551194350670    8.60920094782663    6.80775273568327
C          24.59578749822048    9.67833331380718    7.88205856774030
C          23.72672737749387   10.54744072828495    8.50762540127258
C          22.39425369157478   10.35706904458159    8.13773492737495
C          26.01618643561672    9.54223859297605    8.00545580803028
C          26.86707293232341   10.39701504564103    8.69157393616590
C          28.25263264665051   10.19840973473377    8.77602891338369
C          28.93098756816274    9.12816944249747    8.20289411940474
C          28.08853974583532    8.23856656235563    7.48926947896216
C          26.68493261097438    8.45403285512602    7.39769682214986
N          28.35714985313867    7.11912717115234    6.79894516239873
N          27.19757339852688    6.72379644194348    6.34957681306494
N          26.17195997994109    7.45942573868477    6.66628537083082
C          30.34053585226277    8.91144509590295    8.32389145867637
C          27.05519155831740    5.52083652424015    5.57487876111798
C          25.95257873731003    5.67903318073089    4.53972529129540
C          31.04519145250293    7.80323199715384    7.90022578927744
C          32.40728214033270    7.86969527780975    8.18907248047147
C          32.77182876668373    9.03680556127697    8.82387097259388
S          31.39832520993492   10.06482462485168    9.08256118409429
Cl         23.41659238785813    3.62917799897151    2.40169846108575
Cl         13.04936458657248    9.55797385268740    9.05304952080023
F          26.37694491975327   11.48512536871608    9.31631773923204
F          28.94491594915110   11.12014324561105    9.47628898787705
C          15.39358911865131   10.55188154393366    8.00150894233944
C          15.26190609593758   11.89870188837339    8.63761789741324
C          21.22073509490286    4.43267048153422    0.13373450996712
C          20.26405246062597    3.26214756802039   -0.09791201667089
C          14.55514652718580   12.87529121976746    7.69619208372031
C          36.42751083757733   11.87427943701429   10.70653300862109
C          35.76828128430172   10.75883958867567   10.15240516570256
C          36.46921646485051    9.54793454176178    9.93271795744936
C          37.81319983337866    9.37646819861028   10.25245617278375
C          38.47867297903727   10.50370175652181   10.77860778483868
C          37.78013080234897   11.72066430012240   10.97993979996287
C          34.41396000150218   10.66839570372018    9.75185997261133
C          34.05999749763903    9.44206780038066    9.27249822316390
S          35.41330743598539    8.32674388627251    9.26976403338411
C          39.83565712818337   10.61724300796981   11.15730010213837
C          40.17273992290989   11.84287139546682   11.65481635855303
S          38.81527633537987   12.94681330527723   11.66093120858032
C          35.70383842832204   13.09982748060667   10.97915877318028
C          38.47446144101370    8.09937853502665   10.07292141330052
C          38.28550858306995    7.18914701329312    9.07139750343476
C          39.04498684657877    6.00357257281003    9.19994235116055
C          39.81316056744734    6.03362318875437   10.32670553036008
S          39.61741471087702    7.49018594978766   11.24314974535021
C          34.45967623125586   13.23333914917652   11.52603528453881
C          34.93901407929695   15.44108613602639   11.15091966119732
S          36.37682835664108   14.65704462200617   10.58034549916409
C          41.45200937431996   12.22919186112964   12.14281990518103
S          42.70596123334745   11.03624425073441   12.29985736574738
C          43.81134993559253   12.22657038672990   12.91769048448617
C          43.21484725686234   13.46782018462855   12.98823192170448
C          41.88654911856410   13.46755867076232   12.55873715296863
C          45.13866138583828   11.81638672953548   13.26886448834274
C          46.17238714452253   12.64272568772735   13.68322565671627
C          47.45443737059596   12.17050477420775   14.00600755965295
C          47.83874180646816   10.83687548230519   13.95077281207819
C          46.80117830473812    9.96507066533086   13.53412663784050
C          45.50323390835511   10.45107486302378   13.21028500058160
N          46.77207410691562    8.63357403587416   13.36246153357738
N          45.55305063770802    8.37821027027840   12.97489207944663
N          44.75321361952446    9.39934733908932   12.86603839756440
C          49.15000621203496   10.35782811334103   14.28123051624128
C          45.10282006823154    7.03756119545820   12.71688611722655
C          44.19118999463240    7.00496028579948   11.49936240312199
C          49.57976899942011    9.05135706289821   14.24812788627736
C          50.92152071471763    8.90433909588189   14.63034393329966
C          51.50754922442267   10.09140852050954   14.95117144566237
S          50.43483383734991   11.41522177046927   14.79493521323792
Cl         40.88863482259667    4.81645843143755   10.86590950183243
Cl         34.80844414096789   17.14527582122468   11.07915176393187
F          45.97948938959690   13.97150257094405   13.78905645347517
F          48.34969019159314   13.10246768078595   14.39003381165633
C          34.00759720275398   14.56873307768140   11.63424511700812
C          32.65851341829082   14.94827258017138   12.15530218078549
C          39.03911184355957    4.89140942608969    8.20039693346644
C          40.05949893310597    5.15520493497873    7.09196489629804
C          31.58146646418188   14.70104438934777   11.09728638965598
H          -3.41994660350080    5.85804107426012    7.19219840818743
H          -3.34935232427058    7.22262286524816    9.41090103639946
H           3.65804759519858    6.27050691154665    6.19431895707583
H           1.43065290335138    6.98074219134445   10.31422177083795
H          -3.40803350238434    6.47937738355970    4.88970696867457
H           5.42632885992073    3.44036139662698    1.21004898640369
H           3.04281863315123    3.70772378184615    2.17706575078548
H           8.26065355909214    7.67650398848259    6.55186861602821
H           9.45719783651430    8.68876783540454    5.70491845097822
H          10.12097289158429    6.28555078623449    7.48173461879937
H          10.41785298303082    7.98442071034381    7.86371921966581
H          11.29528761918129    7.20842164192126    6.53781783138927
H          12.54753876330801    3.74572993291773    0.63595029876458
H          15.01176609766877    4.34830488940033    1.14988144371591
H          -5.42782630105960    4.52003288720568    2.29403419993528
H          -5.25864283262022    6.12213022503839    3.03057017920098
H           4.44357448624190    8.76269686179286   11.85489649821809
H           3.15797907351685    7.59910121419967   12.21849574782315
H           2.75044721114083   10.57580900637213   11.64698279800368
H           2.64355960082437    9.80553763737498   13.23272099347690
H           1.45795784145530    9.42129947299779   11.97848451105438
H          -6.31011213233811    3.62185413547759    4.44440128893464
H          -7.29720304553364    4.96915800486115    3.87052110085864
H          -6.14464490677268    5.21466237440865    5.18637238372366
H          14.69073929333405    7.47429797556893    4.78113759337170
H          21.83802204706755    7.59169749123001    5.09890466135740
H          19.30677938291642    6.10092052660092    1.39601918369771
H          17.25522899767670   10.85637116827076    6.89986680904037
H          24.04317548071569   11.29070358336156    9.21565051256904
H          21.57282229805233   10.93432595410921    8.52412263961079
H          26.81500739054155    4.69636121883226    6.25540478149531
H          28.02507395315832    5.32147311884591    5.11458213482450
H          25.01571506953069    5.92664394536174    5.03079332432732
H          25.83020777596280    4.75126190473223    3.98921350464879
H          26.19567828698106    6.47327106772710    3.83883611535691
H          30.56505929533772    6.98074154443282    7.40381314781963
H          33.11706389276634    7.09902484176066    7.94559605820051
H          16.25686945050971   12.27689848163862    8.87786401703436
H          14.69181282104794   11.81062493316863    9.56389765968352
H          22.24286004294041    4.12068178360047   -0.08558342650873
H          20.95872346852617    5.25411544493859   -0.53595761374554
H          20.53194636421680    2.42421151035638    0.54127263325681
H          20.31004119536702    2.93688865373306   -1.13416907813247
H          19.24276884050881    3.55647709456419    0.13203465106815
H          15.10844044898118   12.97274099036367    6.76502783999913
H          14.47726551529171   13.85551248031125    8.15961724812700
H          13.55366111069988   12.51937012861101    7.46627774978126
H          33.72359268960163   11.49085599729853    9.78933030081941
H          40.56149345319027    9.83175286450341   11.05979948286504
H          37.63950977339018    7.36623574230416    8.23091481099081
H          33.88569415496034   12.39974696768931   11.88924419938168
H          43.71990416880669   14.34643652308974   13.34421703479573
H          41.25705990526944   14.33985163988068   12.54498106402521
H          44.55978787184331    6.67891054910901   13.59805460339166
H          45.99500395014589    6.42388027247681   12.57914344709706
H          43.35565914454153    7.68323907430430   11.64910561294606
H          43.80977834971966    5.99902779439281   11.35146363504399
H          44.73199192820827    7.31067277661915   10.60735935712331
H          48.93489167077396    8.24361133528972   13.95734280248904
H          51.43243125613746    7.95878369927726   14.66643665094288
H          52.51489444516549   10.26715014041645   15.27338170971320
H          32.66034264938756   16.00228518455923   12.43601498325846
H          32.43845029694490   14.35357123255732   13.04415921178602
H          38.04087199822375    4.80774414692537    7.76752865704888
H          39.28022342606668    3.95121080437550    8.69933002955795
H          39.83714539166887    6.09189133944443    6.58615811752567
H          40.03785564468969    4.35057818290614    6.36132939240750
H          41.06172276559617    5.21867853168057    7.50923406402956
H          31.78771857332707   15.28785045173723   10.20527079726231
H          30.60556726833206   14.98616083477182   11.48130406802773
H          31.54745405357435   13.65038411345639   10.81859849767539
