224
 SCF done       -382.602216069372          0.000949103367
C          -6.56989226203033   -6.04554334252275    7.76569743045031
C          -7.50184194271375   -6.81404025659384    7.02607090819861
C          -8.08178817685508   -6.38209457607782    5.83963777330738
C          -7.66603804978720   -5.11827021354279    5.36987794907996
C          -6.73986788467416   -4.34313450641124    6.10753964159713
C          -6.17070808506685   -4.77911921094433    7.30346153627870
C          -8.02513162793508   -4.47888110959541    4.16528854403141
C          -7.42927158312895   -3.25699310211742    3.97823841183367
S          -6.37152793503419   -2.83843268386394    5.30531415723688
C          -6.19656723029963   -6.70470869369625    8.97455623382413
C          -6.79884393970186   -7.89977143346009    9.13370621891618
S          -7.86105983182628   -8.31793089004770    7.83589344308083
C          -5.21018727713045   -3.94971310170392    8.00414541746292
C          -9.07855388171020   -7.15667166509309    5.12993648577459
C          -7.68070665504624   -2.42065178181636    2.85234087779511
C          -5.22389669706838   -2.59111104002633    8.15102911732872
C          -4.10686377280574   -2.09136623248409    8.84865739410764
C          -3.22316471945404   -3.05560889742817    9.22273391474434
S          -3.77438146834654   -4.62239428295480    8.72862433399099
C         -10.23358611709519   -6.71257213984867    4.54836237845770
C         -10.99680725080346   -7.74234532762473    3.96401652928946
C         -10.42801232025990   -8.97293242376205    4.08528566923768
S          -8.92450628553501   -8.88098712548926    4.94345007291502
S          -8.93937563029933   -2.91702080032449    1.76144462079827
C          -8.69354542228092   -1.52940372759844    0.72334248806700
C          -7.67511336835241   -0.75409585795562    1.20651583002888
C          -7.10223424729803   -1.23897112379914    2.40174615390950
C          -1.96118570630000   -2.91074978257864   10.00150283728444
C          -2.15104550150916   -3.36284564997264   11.45120018154494
C         -10.95583343215697  -10.29169497898378    3.63381414809720
C         -11.38051864331333  -11.15290273471879    4.82502855420247
C          -6.01153531445724   -0.51762865130581    3.06717934395066
O          -5.66040537896210   -0.67613647464703    4.21580327259245
O          -5.43408872135509    0.35786204136377    2.23884497581344
C          -4.39641824154860    1.17306001147914    2.77873407156571
C          -4.96799280684883    2.38426857259848    3.50211212169816
C          -9.52221092453106   -1.41117524791454   -0.43308217143937
S         -10.35484812365157   -2.85516208735089   -0.92768888555838
C         -11.14868701314964   -2.02956056464735   -2.23755085098941
C         -10.77326537279425   -0.71634503728039   -2.27541973173675
C          -9.85024724645505   -0.34741267130298   -1.26864318544509
C          -9.38111144346141    1.04250772116574   -1.16102476910039
O          -8.57456829575476    1.47379184598137   -0.37099969542673
O          -9.97122200480548    1.81374793693740   -2.08927011945242
C          -9.61886122238373    3.19457324414317   -2.09691550248602
C         -10.41543218525661    3.98118295016061   -1.06529007623811
C         -13.28271175845368   -4.50124237265621   -3.97766018374966
C         -13.77978879218808   -3.41410930506620   -4.74064252390770
C         -14.76035969804013   -3.55357434125652   -5.71225207715527
C         -15.19275249398448   -4.87250840612236   -5.97376014052643
C         -14.69240320713718   -5.96356318724215   -5.22176646788031
C         -13.76447564639562   -5.80779763275842   -4.19342129300393
C         -16.10628912789504   -5.30258459969259   -6.95591618417957
C         -16.33269201039505   -6.65756427214390   -6.96142541402046
S         -15.39378053201970   -7.47499845034539   -5.73373101572247
C         -12.29785639193616   -4.07797244166949   -3.05394087844557
C         -12.06138877931143   -2.73607589963255   -3.07205739922106
S         -13.04243691987330   -1.90585949554006   -4.25802938053831
C         -13.32958761042840   -6.92879870870014   -3.38577151593716
C         -15.34556830236079   -2.41854722024648   -6.39471983508141
C         -17.22379204271699   -7.30412667992228   -7.86525992527741
C         -13.09819968516399   -8.22034447101932   -3.77032288676274
C         -12.67992198595570   -9.05340899741086   -2.71372881782689
C         -12.61038695097966   -8.41765929294180   -1.51239675202568
S         -13.06517734038021   -6.75459942064676   -1.66991220457901
C         -16.66539261419615   -2.19283254476491   -6.67040065039748
C         -16.89955339341937   -0.95524058903177   -7.30103973820180
C         -15.76527333945374   -0.23683174109712   -7.52262488338673
S         -14.36992787116731   -1.08312376596944   -6.93781543741146
S         -18.07083597351279   -6.29645856932660   -9.00272617165786
C         -18.91076274220775   -7.65975730978346   -9.70900812276535
C         -18.53968366705125   -8.81644652598564   -9.07739877445746
C         -17.59959841741106   -8.63344684290713   -8.04153398763962
C         -12.15178299238067   -8.94156066763172   -0.19483515741039
C         -10.81562000580619   -8.31298067832617    0.20828803547275
C         -15.62315747231417    1.11861122414643   -8.12530592669842
C         -15.20171240256657    2.14888894770435   -7.07591517468091
C         -17.09266223732076   -9.77351591379511   -7.27152067965075
O         -16.20366272273266   -9.73035571326256   -6.44840257632829
O         -17.74087849381442  -10.90004432565547   -7.58152715667294
C         -17.30707875626416  -12.09432807563411   -6.93452828559486
C         -16.09058471170102  -12.69002517980872   -7.62917857881131
C         -19.83678010380463   -7.41441893902833  -10.76601342086668
S         -20.09972434176353   -5.75123478034872  -11.20598344722833
C         -21.29612359499852   -6.18229135485875  -12.39327088076092
C         -21.47035726399315   -7.53832631585304  -12.42678694001899
C         -20.65299288659081   -8.25182435518353  -11.52202898868199
C         -20.70120225280690   -9.72375612026843  -11.50145999871812
O         -19.85774742848232  -10.46684180549991  -11.05855193829728
O         -21.83082882318795  -10.16294546714047  -12.07732123514365
C         -21.98602156252493  -11.57491604918454  -12.20018204877809
C         -21.28534707132130  -12.10163509323701  -13.44481781877368
C         -22.51740847264745   -3.08529874985457  -14.01417691332761
C         -23.39703984825289   -3.91924663455139  -14.75022833922741
C         -24.34393524500420   -3.43126240504521  -15.63880292932065
C         -24.38159688846422   -2.02895811699822  -15.80120616539396
C         -23.50435072237855   -1.19102822795310  -15.07108434662797
C         -22.54978770204383   -1.68707013562896  -14.18551032415631
C         -25.18600499338889   -1.28235997486487  -16.68484356840086
C         -24.97443270372596    0.07305696186587  -16.63062658187220
S         -23.73969877064150    0.49102216885231  -15.46583474465094
C         -21.71870097966233   -3.83520312436852  -13.11806612067252
C         -21.94242411099765   -5.17900558558091  -13.16964162010127
S         -23.17283008407070   -5.60167908451584  -14.34026088471528
C         -21.62625276572884   -0.80534161313393  -13.50315122456586
C         -25.26381799514136   -4.29357456362932  -16.35099620203042
C         -25.69050898040133    1.01514185202670  -17.42436370729090
C         -21.85291715182029    0.44472035315048  -12.99863844529454
C         -20.70975895822594    1.02857075119971  -12.41755391778519
C         -19.59942618807159    0.24514731775044  -12.49234400659710
S         -19.95430572027891   -1.25171822415782  -13.28712900131973
C         -26.60159254741260   -4.10931041748730  -16.56253215394186
C         -27.20036065167836   -5.15683796218373  -17.28972562905474
C         -26.32645035165381   -6.13738447672334  -17.64564648688452
S         -24.73031122312278   -5.78785097609959  -17.06742406845266
S         -26.96149539974351    0.39922930956249  -18.43938687199536
C         -27.33714693051406    1.98758981268915  -19.06486906139465
C         -26.50254492365126    2.92067310784073  -18.51595087986383
C         -25.57720362592912    2.39133049181009  -17.59040150806612
C         -18.22874387622468    0.50352934109917  -11.96773285704615
C         -17.82774722009194   -0.54153419976373  -10.92535840852723
C         -26.59788966875319   -7.40120251892984  -18.38618488279761
C         -26.50723252134777   -8.61504358895334  -17.45940877896167
C         -24.62898158848997    3.25982579205569  -16.88480371963851
O         -23.97938620923683    2.94730971492906  -15.91087353867157
O         -24.56251844652036    4.47016660558291  -17.44749141876097
C         -23.72363106769461    5.43107826601455  -16.80933801515396
C         -24.41889963216924    6.06995040883415  -15.61531506981797
C         -28.36869284372775    2.11141034820001  -20.04846619830770
S         -28.80321107923272    0.67958025543093  -20.93354497244436
C         -29.96926688345047    1.53633212958946  -21.86075847819758
C         -30.02338418737172    2.84362163143580  -21.51962072112300
C         -29.11864261351061    3.19621479413059  -20.48063136530424
C         -29.10473606555192    4.55688298080644  -19.92328041518766
O         -28.50343814923589    4.92510167558935  -18.94220700732360
O         -29.88209176576220    5.37635519301501  -20.65207156343394
C         -29.99713663223622    6.72314412125889  -20.19885301853659
C         -31.04978496548191    6.85742671744616  -19.10738396889101
H          -8.68125714699364   -4.91595389764259    3.43379508448808
H          -5.51531008348071   -6.28930522183246    9.69347332126463
H          -6.69071396995507   -8.58825268797892    9.94895684819699
H          -6.02374916260956   -1.96771964383571    7.79593336258573
H          -3.96172465739764   -1.04646484717560    9.05918003387822
H         -10.55037012934392   -5.68550865522926    4.57952496732680
H         -11.93808339293479   -7.57242848562892    3.47159917654168
H          -7.34858069753104    0.15201073121050    0.73409446585046
H          -1.65395722251866   -1.86294522420317    9.98058423154957
H          -1.17177939076621   -3.50948018785230    9.54062816114416
H          -2.93131388876877   -2.77593393578459   11.93075880413820
H          -1.22722633727998   -3.23811257631412   12.01073335915764
H          -2.43858112937557   -4.41140353784117   11.48285684081701
H         -10.18710532631279  -10.82344700077391    3.06650064030320
H         -11.81260430829935  -10.12342298818503    2.97733481160750
H         -10.53103835034005  -11.33170199642827    5.48037748811343
H         -11.76478925979048  -12.11016605402630    4.48164480430594
H         -12.15715141577376  -10.64996587561458    5.39691828419490
H          -3.79866167415175    1.47497290031642    1.91617405034475
H          -3.78929460122293    0.57181271977765    3.46414910568005
H          -5.61830832833828    2.94456700553754    2.83456674063241
H          -4.15817141116683    3.02682647050865    3.83577810075891
H          -5.54247068438251    2.06187607778285    4.36718692710972
H         -11.14799322859475   -0.02340114770074   -3.00626391358997
H          -9.84200728811938    3.53575045518244   -3.11016092810295
H          -8.54596619234671    3.28986237341727   -1.89823598277482
H         -11.48161224751825    3.84347158364000   -1.22956201502228
H         -10.17551596439470    5.03746602711204   -1.14754098027151
H         -10.16470226586129    3.63897425590162   -0.06419079490948
H         -16.57070021200946   -4.63849040724217   -7.66326640304472
H         -11.75609119558395   -4.73675034682203   -2.40070123283964
H         -13.18940863079999   -8.55941859685067   -4.78573728258143
H         -12.43713645559103  -10.09323171727753   -2.84419029662330
H         -17.44944036571941   -2.87169765159098   -6.38641426710079
H         -17.88036025606405   -0.60890859385858   -7.57444712237589
H         -18.90942741014313   -9.78488129914710   -9.35399572126993
H         -12.04642255068994  -10.02639017397440   -0.26405461573005
H         -12.89852471793418   -8.71762843928568    0.57188666741893
H         -10.05721740624815   -8.52831459796223   -0.54114249338959
H         -10.48184709894613   -8.70450009743463    1.16549195435884
H         -10.91889575455098   -7.23330548826213    0.29383700349746
H         -16.57916815614448    1.41019901777423   -8.56514050418009
H         -14.87225729004274    1.09268940857658   -8.91959421257319
H         -15.94179995679994    2.20225512129305   -6.28068472929909
H         -15.10492001238599    3.13247231301099   -7.52909107538849
H         -14.24580925658971    1.86956274198059   -6.63885325693617
H         -18.16305520687600  -12.76986411517317   -6.99165914326999
H         -17.07496232470302  -11.86989822367939   -5.88778526918824
H         -16.30414858671427  -12.84903556498752   -8.68349575454424
H         -15.83582001180759  -13.64034653358202   -7.16876080606631
H         -15.24331030655202  -12.01476587823841   -7.53736171500768
H         -22.16221972085816   -8.02021171278209  -13.09331694476756
H         -23.06451310633722  -11.73724096296319  -12.25586637225175
H         -21.58066641553312  -12.05791759884788  -11.30469319987022
H         -21.65854101837498  -11.59282630948414  -14.33062391592186
H         -21.46760816660858  -13.16793915798039  -13.54281349825690
H         -20.21391868303443  -11.93280670428663  -13.36582638011496
H         -25.88559049130709   -1.72770442326945  -17.36956982939193
H         -21.00922984898137   -3.40617003047237  -12.43457949025835
H         -22.81591310617763    0.92108508951164  -13.01166536494081
H         -20.71380719301778    2.00189051525741  -11.95943268800987
H         -27.14871898096342   -3.27052508136931  -16.17076325986947
H         -28.24618759483519   -5.17942648880582  -17.54102106506141
H         -26.54865659889141    3.96712815658395  -18.74559729267765
H         -18.20565970017653    1.50216918482877  -11.52559415207509
H         -17.50871473699411    0.48026582550810  -12.79081261147647
H         -18.53221911443415   -0.53706084850994  -10.09709432877398
H         -16.83370932113548   -0.33576049789483  -10.53762436500312
H         -17.82803397214674   -1.53459861745738  -11.36848836559220
H         -25.87388707930323   -7.51581426335130  -19.19682630725385
H         -27.59650615961050   -7.34431039157895  -18.82450788811353
H         -25.51213540989706   -8.68131048164175  -17.02529171353227
H         -26.70920614364242   -9.52908103753109  -18.01239866984614
H         -27.23068216694617   -8.52864569974906  -16.65171807642235
H         -23.50837634542910    6.17117791262839  -17.58272483646809
H         -22.79728665598506    4.94092580283233  -16.49122616783746
H         -25.36779492020678    6.50185165349176  -15.92347546396062
H         -23.78833491623483    6.85075524203618  -15.19962296732709
H         -24.60330582984903    5.32015655238647  -14.84999285034989
H         -30.54078971261800    1.01551375965664  -22.60259552116713
H         -30.68605583088921    3.55721122564142  -21.97253654393495
H         -30.27381144557533    7.29667599089202  -21.08613982099522
H         -29.02310240567488    7.05773818750765  -19.82640060464269
H         -32.00832554924411    6.48435616094537  -19.46038744184107
H         -31.15497217137874    7.90215026407210  -18.82923453462381
H         -30.74932356183065    6.28765858483532  -18.23146525253106
