254
 SCF done       -432.113060012172          0.000798980034
C           1.25827401708686    8.01250004810617   -4.32295608967391
C          -0.05720154006028    8.45570569425568   -4.10096164917221
C          -0.44343494880550    8.92028175994937   -2.82355435694963
C           0.41793984307163    8.96494642942157   -1.72985747012868
C           1.72170780761094    8.47543805291999   -1.93921979189330
C           2.10685265827154    8.01529121198112   -3.22281035766859
C          -1.13706410076454    8.50956918553642   -5.03135071537475
C          -2.26557587080908    9.01754794398134   -4.49780769519425
S          -2.10507527637487    9.45419780250663   -2.83157093028598
C           2.77532469449362    8.35119402671928   -0.99928936334834
C           3.93191055552793    7.85995614564635   -1.53052269335342
S           3.77218613512674    7.50796562433968   -3.24189336611563
C           1.69708863800546    7.59231970134139   -5.64036531409851
C          -0.01441402603945    9.52362652035213   -0.46547108037570
C           1.47342690932551    8.20674747554932   -6.83912909997070
C           2.04687577840352    7.52357537646157   -7.93081964660853
C           2.69785392756062    6.38360043179157   -7.57377163592043
S           2.62867391291534    6.13846500353801   -5.85904049255576
C          -1.22876825532350    9.38969240918214    0.14728713998148
C          -1.33853309461713   10.13444090939953    1.33769299123408
C          -0.22198069143409   10.85446905959102    1.63190710133825
S           1.01039777689516   10.60251953120466    0.44135644355033
C           3.43760510556519    5.42413621426205   -8.44099376699874
C           4.94711125131675    5.51921220110020   -8.21171115158580
C           0.03670705583873   11.73051701016802    2.80852308946090
C           1.00040469272270   11.06287401822993    3.79125435737131
C           5.16892107567930    7.61306549096331   -0.87257895425838
C           6.35141805068274    7.22962262921207   -1.47569428092538
C           7.38281702317302    7.06346981556535   -0.56638270391013
C           7.01611649267214    7.29949540379025    0.75216260686361
S           5.33682991747144    7.75513805131992    0.84953175527480
C           7.90797640793814    7.16243644137904    1.84449405676684
S           9.57396230178843    6.80385690973759    1.45489253018724
C          10.04215908950222    6.70504114593187    3.13481825281139
C           8.94120964719723    6.93807845776000    3.95116548149915
C           7.74049675089383    7.21521808399499    3.22328754756596
C           8.98302858571373    6.88145824281482    5.39968099365087
C           7.71227057848751    7.15795158569595    6.06041975472124
C           6.51683319177030    7.46660470833073    5.33455570481094
C           6.48247377372330    7.53391179030353    3.87487714621573
C           7.53144775918938    7.16426241027967    7.42148276941547
S           5.88701230362181    7.52120869371846    7.81909063524360
C           5.43738838328049    7.67991277722662    6.15474751911255
C          11.40260703539447    6.41733075312928    3.40463978076469
C          12.37404816710036    6.29093579525752    2.41981883453016
C          13.63605457574132    5.99050475088709    2.90713079710762
S          12.09205195360582    6.15246396207694    4.98213902994002
O          10.00008589493922    6.60321909021108    6.03231584027208
O           5.47079503593730    7.85392570564548    3.25468624985296
C           8.51419178903588    6.88023699708787    8.49962801687241
C           8.69625869332238    5.37219749843619    8.69394033479146
C           4.04796006518443    8.06890702431037    5.80273053228720
C           3.91643439250921    9.59437629808503    5.77226927003950
C          16.37224819717132    4.67375968605070    8.30799057677610
C          16.04201451869284    4.99576459815703    6.97609259419467
C          17.04087217104646    4.97456673179690    5.97207040595645
C          18.37484051141211    4.67205821660955    6.22278147344307
C          18.71320819542986    4.39632935173052    7.56338531601649
C          17.70878610444161    4.39521884004768    8.56371344824488
C          14.77507652756990    5.34909073253191    6.45448941334934
C          14.76958829903211    5.54363756451006    5.10329691385696
S          16.36350814305563    5.32665934301278    4.40416197633608
C          19.98777209967036    4.09578250397096    8.09960043105794
C          19.97317950070043    3.81956055514415    9.43636643069781
S          18.36237180268180    3.94803435832785   10.11612554245558
C          15.35360449117103    4.62183961833900    9.33742517243319
C          19.33839985679278    4.61051581398145    5.14292604910449
C          14.10008415795157    4.08320484746997    9.26228912677922
C          13.36538956551107    4.21303454449778   10.45760443345386
C          14.04559494530547    4.85773465632492   11.44410811750577
S          15.63332205871458    5.30658458474087   10.91368694778685
C          19.43072266648251    5.42474102539045    4.04855481494579
C          20.44258349108968    5.03884433337383    3.14834099386299
C          21.11586467070335    3.92148924170516    3.53590701887091
S          20.51874626023396    3.33204833908105    5.05056827417155
C          13.60714455079503    5.15473265858889   12.83671787445128
C          14.36540711629380    4.29718648127361   13.85157085599183
C          22.26493217540181    3.24913755243164    2.86750381108714
C          23.58577824327794    3.63170171495257    3.53860816446784
C          13.65585133935691    5.87150875140730    4.28340834336316
C          21.07523579814178    3.44862222870772   10.25551460563375
C          21.02234876443271    2.95812117570775   11.54592142062278
C          22.27724801122885    2.65685603884935   12.05132978137627
C          23.31905953360598    2.93279522016186   11.17572574001174
S          22.70681725385729    3.57994554222481    9.67874420590013
C          24.68314690496288    2.69346689325352   11.47627621620290
S          25.02492854739998    1.79462420374886   12.93598446461658
C          26.75396584395719    1.91349460996922   12.71324854886501
C          27.03819924006753    2.64002398969024   11.56174914402349
C          25.86899095993863    3.05898773511355   10.85081333370624
C          28.38003841438014    2.97656359338794   11.12565340024136
C          28.44799285208203    3.77532171433731    9.90684981277603
C          27.27941739653537    4.17530526206350    9.18356300421409
C          25.93318341089715    3.78676423919432    9.59580923383810
C          29.61340572301402    4.21734790428936    9.33068996453704
S          29.27923475730482    5.15557176151030    7.91660356682422
C          27.56988995950849    4.94167874034376    8.08268610285421
C          27.57325264577335    1.27683524649780   13.67771389445549
C          27.08497802839980    0.50289154347404   14.72288724943274
C          28.06996071599302   -0.02608033084106   15.54308450510941
S          29.31263970052336    1.34521240573237   13.72949646581142
O          29.39077516819827    2.64801502789838   11.74400192687888
O          24.94130162583968    4.04159784950767    8.91653866960185
C          31.01612047061720    4.01986412947673    9.78064842105008
C          31.38287560657040    5.00721037638831   10.89217709457105
C          26.64793409902847    5.51685528228799    7.07013105000085
C          26.35469310695693    4.49306453266889    5.96994249467113
C          34.22953219992338    0.32855936399450   16.16131644351038
C          32.86260663547385   -0.00827022855731   16.22044627125378
C          32.40133166916504   -0.94910177615319   17.17327354155827
C          33.23955872381993   -1.60828842369066   18.06652600497512
C          34.61433137161917   -1.30539285808055   17.97652089902529
C          35.06973668974436   -0.34647602871881   17.03670190959339
C          31.81163310858473    0.49111092778331   15.41698827551871
C          30.57999332467154    0.01075110615315   15.75725963541159
S          30.66656222318827   -1.12349080366152   17.09197226421538
C          35.68320466591663   -1.84779428339637   18.72955759124910
C          36.90067447667658   -1.30811071409091   18.42873373080001
S          36.78932298995289   -0.10072667365825   17.16235914386449
C          34.70769180006364    1.34317974736972   15.24382829704636
C          32.70507526879088   -2.53512741612037   19.04295635896433
C          34.14325571238969    2.55342484705045   14.95388228531312
C          34.87431816778377    3.29660136989554   14.00607532906814
C          35.98994587787489    2.65744660103037   13.56072102550963
S          36.16954821434933    1.11305888646483   14.32662536537742
C          31.69037872444261   -3.43674484687848   18.87800113355858
C          31.37948311399762   -4.14963644163292   20.05179541400630
C          32.13728811903589   -3.78755539723092   21.12270150800158
S          33.27667111560917   -2.55811673506597   20.68871650443742
C          37.01211064154404    3.13717307785156   12.58869574724472
C          38.32990605188114    3.47127867495494   13.29042808559065
C          32.12328960227821   -4.34709275188001   22.50309426965455
C          33.28703428219033   -5.31862516419187   22.71198215118948
C          29.34018154450394    0.34480934122119   15.14727586984407
C          38.16020418629532   -1.61103946465159   19.01479428978066
C          39.35414266045656   -0.95565395068568   18.78128991086789
C          40.40072975442093   -1.47772649890386   19.52357704330315
C          40.04183085391961   -2.55186243402610   20.32739265021883
S          38.34637994813099   -2.91083812599208   20.15002417129901
C          40.95137515376367   -3.23128686820443   21.17575481968479
S          42.55721348210403   -2.55538072679055   21.30550204251953
C          43.09956540464723   -3.81115482817791   22.39118681966637
C          42.07319321601804   -4.71603314299518   22.62356179701714
C          40.85620136603344   -4.38471177443936   21.94518635090605
C          42.20871737047015   -5.90713355352913   23.44510234755063
C          41.03211361291294   -6.77136112165406   23.46686403035534
C          39.81021062022052   -6.43423639605163   22.79812716055838
C          39.65117616924960   -5.18684884629583   22.05168128255891
C          40.96714895427851   -7.97195586725857   24.12925126282559
S          39.42091948124287   -8.71242145719374   23.90946795764976
C          38.84157741784186   -7.39514100726003   22.94297826496681
C          44.44434044651639   -3.72470802365447   22.84401537731004
C          45.32260724193969   -2.72590082499279   22.46059357240211
C          46.58828879773619   -2.84003749182810   23.03824540304322
C          46.67388278496106   -3.92360152617946   23.86389250650892
S          45.22205186653508   -4.82446767223876   23.94980717892987
O          43.23461520396740   -6.18458949962419   24.06012391483548
O          38.57806965241604   -4.84488407808474   21.55919381669004
C          42.02092540299059   -8.67384204262487   24.90744097805272
C          42.97993019879630   -9.41938481528628   23.97475919291582
C          37.44676333305303   -7.42668424695796   22.43173645512567
C          36.44718528610535   -7.20002994755179   23.56830935108404
H          -1.06002627454017    8.16223645501582   -6.04523345356684
H          -3.21498876156999    9.16267881725886   -4.97512769716668
H           2.69090997434781    8.60515582998719    0.04161264426957
H           0.94816701343667    9.14097302885447   -6.93117480193201
H           1.97559468212063    7.86820917152430   -8.94760086331375
H          -2.00956340462908    8.75095147662138   -0.22393812144094
H          -2.22217756648664   10.14109925013090    1.95117204812667
H           3.20766188632078    5.64547616610909   -9.48546986229474
H           3.10732891615131    4.40450826424383   -8.22642420136520
H           5.30027785642854    6.52419566195162   -8.43179107415045
H           5.47191853860777    4.81642593438665   -8.85412719897752
H           5.18375428587563    5.28946770107349   -7.17530267278878
H          -0.91253737259203   11.94060950434334    3.30616486286514
H           0.46654981867693   12.67843484459697    2.47525209667875
H           0.58379351325980   10.12123574806517    4.14360558505353
H           1.17468146807316   11.71249354831186    4.64608430657765
H           1.95191921680305   10.86055070956990    3.30414782993098
H           6.44904363840876    7.08319156749888   -2.53715318627963
H           8.38038925442119    6.76722231644215   -0.84108280184082
H          12.15105847796811    6.42046329801221    1.37479225406891
H          14.50877118253566    5.85589973684400    2.29233671268188
H           8.17056867998702    7.33269199727960    9.43204712889312
H           9.47763592002006    7.31212409538576    8.22169843801281
H           7.74589029436491    4.89721530920726    8.92884559348957
H           9.39191829874463    5.18850443498333    9.50817708271176
H           9.10076702873153    4.93063562850439    7.78732722781587
H           3.35545151005213    7.65759216092048    6.54020886702761
H           3.80613328635374    7.67223711222952    4.81574747431152
H           4.21149459699198   10.02258130068930    6.72836572703462
H           2.88740046104473    9.87239000536754    5.56612193573552
H           4.55119575028561   10.00421317046534    4.99098042065325
H          13.89109325883282    5.47159255240767    7.05333040978281
H          20.89745368393198    4.07948814883385    7.52774640562719
H          13.72966700962110    3.57226321677527    8.39162780955706
H          12.36338431535100    3.84006777648195   10.57796194920411
H          18.81599810317164    6.29520452623448    3.90773304797859
H          20.65838476468295    5.57033924074874    2.23826367958439
H          12.53525294785732    4.96113312652478   12.91660084606158
H          13.78199533548920    6.21034903267585   13.06006363539285
H          14.19387640139148    3.24084951536932   13.65703881533338
H          14.03359469285168    4.52431515357168   14.86168500898713
H          15.43323012161408    4.49170162873636   13.78241858973965
H          22.28643075703125    3.54602836476114    1.81667270175059
H          22.13801950426845    2.16525704600701    2.91659166671027
H          23.73919660818967    4.70690121508166    3.47480808436297
H          24.41891889746520    3.13007961624219    3.05246142551660
H          23.57010951510508    3.34531139717794    4.58768514845286
H          20.10117016577373    2.81724697321255   12.08372976722795
H          22.44623606522305    2.25491763954657   13.03542499240850
H          26.03171978938441    0.33304015188140   14.86617724959554
H          27.87829247752841   -0.65083659869227   16.39788423043190
H          31.69100797621009    4.15309856970979    8.93272791209171
H          31.12175620829641    3.00560995801933   10.17070302459443
H          31.24630111070856    6.03296537565871   10.55583677860010
H          32.42126655932566    4.86618288269706   11.17949286333252
H          30.75647835029505    4.83092166350822   11.76226760591195
H          27.09823060670601    6.40958973020837    6.63124460179716
H          25.70873316013957    5.78559131925255    7.55671518226132
H          27.27768132248428    4.16348847983537    5.49706144101355
H          25.71276696545113    4.93659338687443    5.21469797354961
H          25.84684662231708    3.63181723881038    6.39573962158509
H          31.95319218362540    1.17410672676117   14.59936075182928
H          35.57360237975259   -2.61642451383835   19.47248266321600
H          33.25401424243239    2.91894204167354   15.43550794001295
H          34.57836674228255    4.27375585122949   13.66661947992439
H          31.20437766066112   -3.61177083900630   17.93537751897693
H          30.61339301169856   -4.90339048151573   20.10025162824758
H          36.62698592122996    4.02533168022714   12.08301167615057
H          37.19396888441182    2.36605405384409   11.83576230074681
H          38.17521416690412    4.24910521863157   14.03482103284786
H          39.06486336303471    3.82002713982336   12.56917508737281
H          38.72235549409799    2.58870662247990   13.79033384786812
H          31.17650940993808   -4.86741367218115   22.66382693219569
H          32.19842770647141   -3.53633013243080   23.23148233670823
H          33.21948466811732   -6.14180929961600   22.00359723527128
H          33.26451352865018   -5.72115939552296   23.72191350351529
H          34.23526956190049   -4.80809478169703   22.55956090056886
H          39.44607664817432   -0.12628627492068   18.10204676619150
H          41.40785844765461   -1.09990848973905   19.48595397761577
H          45.04367632660556   -1.94031335170963   21.77995339107915
H          47.39458872025694   -2.15275138691360   22.85295110214508
H          47.52741955698908   -4.24282943260759   24.42948261666553
H          41.55341046470944   -9.38096558943420   25.59558763946410
H          42.59104830944069   -7.93739340189369   25.47671006859293
H          42.43651295261506  -10.12628987519128   23.35083146465135
H          43.71616905335457   -9.96254747996296   24.56071551753817
H          43.50057845146365   -8.70990769968635   23.33731884671952
H          37.25245062815107   -8.39919213228497   21.97154619088095
H          37.32979647421478   -6.64503981670690   21.68085419065747
H          36.57373146140055   -7.95340234829645   24.34383621122418
H          35.43290728240272   -7.25913317354145   23.18470730746010
H          36.59576655777528   -6.21648935908901   24.00741730227961
