263
 SCF done       -437.982521490423          0.000363666397
C          -0.38305810876873   -4.84117469724284    7.11131506631609
C          -1.67379523404318   -5.02996269638595    6.63187534469322
C          -1.67135022824458   -5.74309651533014    5.43612192015829
C          -0.41536167538949   -6.09479703950747    4.96426625988097
S           0.81675954242867   -5.52409920306663    6.04940587481095
C          -0.18909996460172   -6.81728795122041    3.77044988657688
S          -1.59472271508183   -7.38814118552043    2.90145474250062
C          -0.63060534455191   -8.10736804610513    1.63220113425707
C           0.72103441333417   -7.89349027636920    1.88053311120994
C           0.97121999231919   -7.18037629758270    3.09416056729851
C           1.78902382094829   -8.32815780605789    1.00876315065492
C           3.15706083839788   -8.00844232455156    1.45995261592247
C           3.40299520750838   -7.32512877851148    2.65605690107087
C           2.31224501815455   -6.88919188654045    3.54928019121341
C          -1.31879485428934   -8.79002072464376    0.60324712030757
C          -2.69552830617031   -8.95358156457948    0.57241349279766
C          -3.17578852095412   -9.68413497116321   -0.51114115010062
S          -0.58780323269108   -9.55957523380478   -0.77642253688815
O           1.59896838526026   -8.91650938051423   -0.05261789535119
O           2.56127796836864   -6.32612388514817    4.61243958645392
C           0.08599431256192   -4.18682356865600    8.28744420618566
C          -2.14119354667772  -10.09056889161723   -1.34305356726183
C          -2.94163212743393   -4.59150083398854    7.29472045709184
C          -3.37048363418119   -5.58764347330985    8.37336043264567
C           4.23080278000036   -8.40044534681496    0.66226344268561
C           5.52833911260528   -8.11890766011864    1.04138874240777
C           5.77257020894088   -7.43888046768771    2.22734538187047
C           4.71752629504610   -7.04692929767009    3.02698448516985
C          -4.63452410986594   -9.95617422578033   -0.70799991276659
C          -5.08517405229819  -11.15886490840521    0.12426788158509
S          -0.94900795017813   -3.31586003168191    9.40404896525829
C           0.41090477955736   -2.90144720341964   10.40899177426157
C           1.61745316473571   -3.42083450362561    9.88029092403331
C           1.39261140788016   -4.14705157680059    8.68820035813724
C           0.33905244155818   -2.19049740083309   11.60063722333342
C           1.55589250136578   -1.96852069332439   12.27018200549973
C           2.76038930418119   -2.49370858836509   11.74916030812763
C           2.83360028420147   -3.22069916362765   10.56347778533789
C           1.78367325097309   -1.19366104407694   13.44587835475432
C           3.08279914805676   -1.14667150577570   13.80188228431937
S           4.12016500910373   -2.04145824735903   12.74586422458052
C          -0.91805716366762   -1.71205067415813   12.14217056652631
C          -1.35643328425844   -1.77431103321681   13.43420939605515
C          -2.64246960769829   -1.22579993445393   13.61371806757512
C          -3.18581308174085   -0.73478086638790   12.46727966652190
S          -2.11184751440947   -0.95746015902569   11.12490776348201
C          -4.52424841410755   -0.11314774553098   12.26281168392799
C          -5.45112176114135   -1.04172455278114   11.47593024857107
C           4.09861291680433   -3.72272929508837   10.06893758002778
C           5.13129847567494   -4.25193423557570   10.79285599786334
C           6.23834789726225   -4.61627253169746   10.00271295802377
C           6.06680757104049   -4.35891380509354    8.67714092447520
S           4.51319023184239   -3.65689531489978    8.37786090997458
C           7.01981371052426   -4.58064472040251    7.55368262454595
C           7.58515927574422   -3.25748330519096    7.03371419768896
C           1.07136269098215  -16.20750362560503   -7.60441991377831
C           1.55331790718809  -16.42481906486444   -8.89340371011283
C           2.46055555115211  -17.47598870931669   -8.91759561614510
C           2.71037586090595  -18.05957027459953   -7.68138761836317
S           1.77874813614951  -17.28344813150960   -6.43811251773640
C           3.60143550831479  -19.14325412021608   -7.49496893989422
S           4.27588580383037  -19.88161821770349   -8.92861330373570
C           5.22509558462965  -21.02228900733249   -8.00440345920642
C           5.03208799594558  -20.81151512556999   -6.64246890980183
C           4.09844498519504  -19.76821659660176   -6.35753958600508
C           5.70916082906145  -21.54309080844593   -5.59507958395497
C           5.35830292002704  -21.15841192386806   -4.21370824485849
C           4.42154946660318  -20.15636907548988   -3.93466379073358
C           3.71847480279062  -19.42304489720278   -5.00439738049848
C           5.98586850398399  -21.96694583466319   -8.72893461289129
C           5.96873082778376  -22.07715582959420  -10.11100641369849
C           6.76011930354059  -23.09727907206793  -10.63123656335449
S           7.04145020501197  -23.16752785651719   -8.04182318334543
O           6.54147844398849  -22.42018248919535   -5.81081893144916
O           2.85976187207472  -18.58728541815173   -4.73856816641551
C           0.12881795159979  -15.24856143666533   -7.16860505590928
C           7.41957512082404  -23.79024271498068   -9.62349728976550
C           1.13486984237563  -15.67507244017396  -10.11783443831368
C          -0.22469123298620  -16.16378790710388  -10.62124939669934
C           5.98582682826634  -21.81986994430813   -3.15953539740164
C           5.69223917831582  -21.49456121668958   -1.84992489024066
C           4.76254747425220  -20.50086921870714   -1.57352093315241
C           4.13228697120658  -19.83879614818088   -2.60868070851398
C           6.83087940758692  -23.36980059334195  -12.10073171308669
C           5.73363467796037  -24.34612515471189  -12.52900351884835
S          -0.52564664702556  -15.11217804419864   -5.50407702822828
C          -2.59088116842214  -13.19601001144417   -6.31538382457321
C          -1.32450141202295  -13.80563580993127   -6.54209015647826
C          -0.58214762708736  -14.23219694007755   -7.72087747984400
C          -3.32330930323554  -13.31468185333191   -5.12202348937227
C          -2.82340379303600  -12.32336373119872   -4.22051106054293
C          -1.64961234930806  -11.78503528873695   -4.77054297252151
C          -1.45496629864128  -12.22385677154773   -6.13189254817368
C          -3.11233979781786  -11.79530368637571   -2.94618454689742
C          -2.20516777815388  -10.84645163809433   -2.55482609615222
S          -0.94607943816416  -10.59145798069186   -3.76328041174287
C          -4.29376036221622  -14.32020362024632   -4.88750682945353
C          -4.99334909564561  -14.63069773627198   -3.74564936600653
C          -5.83517319869816  -15.74257961536048   -3.90029863678299
C          -5.79337925606980  -16.29131199880232   -5.14971825717140
S          -4.69569607043973  -15.42922789355739   -6.17342173885216
C          -6.57074732925517  -17.44804208617207   -5.67489720555086
C          -7.64124359173542  -16.99240170838107   -6.66899669574275
C          -0.85696788655911  -11.33263839633372   -7.11542472011972
C           0.19955587655323  -10.48906359382515   -6.94938487645533
C           0.50767353517601   -9.75604546875091   -8.11618098086158
C          -0.30754602596023  -10.03600471114668   -9.16678468827763
S          -1.49886658790665  -11.22182750366491   -8.72766999007722
C          -0.26480991094062   -9.49061782329460  -10.55308186587975
C           0.06643574151500  -10.58001021991584  -11.57426937296644
C          14.45999640622701  -28.63108890848581  -13.05064795784445
C          15.49591470405326  -27.83771325067534  -13.52499782622806
C          16.11292198672945  -28.42345914580650  -14.62649452492788
C          15.57455329409227  -29.64241986056892  -15.01812002909243
S          14.25683216946390  -30.09206572198418  -13.97700079545240
C          16.03804305314615  -30.39734947884059  -16.12203358276321
S          17.38418552852682  -29.74825540543766  -17.02631973692248
C          17.39440304965249  -31.08636909318869  -18.15027228222712
C          16.39289662559039  -31.99247291588457  -17.82296799906480
C          15.62407748569338  -31.60228502473091  -16.68116181321209
C          16.12373138526333  -33.21880557532400  -18.54647089666853
C          14.98482269544022  -34.01974477110019  -18.05454250878388
C          14.22817837227989  -33.63215086146938  -16.94355958884155
C          14.51998428379324  -32.39793238217447  -16.19064904296567
C          18.36278823021595  -31.04670130271527  -19.18531431128272
C          19.25781946063189  -30.00603761827209  -19.36585406189472
C          20.11723714989461  -30.17243339310452  -20.45786251869167
S          18.60026952595483  -32.27010389252176  -20.40546358223160
O          16.78292678077012  -33.59497977953566  -19.50979732769917
O          13.84308614123901  -32.08931488839391  -15.21306076066996
C          13.55020480549954  -28.41647536585349  -11.99347404564344
C          19.86768551614388  -31.35712782898486  -21.09946945855907
C          15.88108806803697  -26.50437070331185  -12.96988266554125
C          15.12500793159016  -25.38481696825508  -13.68848869314391
C          14.66152529813983  -35.19832902743887  -18.72445856642771
C          13.60399802884491  -35.98003275357023  -18.30253714662852
C          12.85303929178106  -35.59478697755587  -17.19984230254898
C          13.16442395511425  -34.43054261616480  -16.52584841447089
C          21.19272879755774  -29.20181066457536  -20.83307453402912
C          22.42910064213090  -29.39866051078071  -19.95435789991393
S          13.18245169353339  -26.95765941230762  -11.01278612349003
C          11.13206747569395  -28.33785255867804   -9.40813944180107
C          11.97152666890666  -28.28306022378259  -10.54837877879085
C          12.61382771134229  -29.22955243727857  -11.44397621210973
C          10.93823711187907  -27.27251578598537   -8.50747341864123
C           9.90850702898951  -26.44288002186413   -9.04811969588763
C           9.65203786035645  -26.86687399641582  -10.36153836934800
C          10.31933058677117  -28.10428174637627  -10.65679644970557
C           9.16143438294126  -25.30539927852154   -8.69307026127268
C           8.32654832395231  -24.88762267382849   -9.69979124507176
S           8.45291086109231  -25.91544147669543  -11.12881095186340
C          11.71303385146295  -27.05049559061668   -7.34319056107438
C          12.72434097777806  -27.84477759551565   -6.85167425441930
C          13.31125300003949  -27.33097447060580   -5.68698988259004
C          12.76474649591539  -26.14833589539981   -5.27623295029202
S          11.49085158464901  -25.64760773895273   -6.33467653528081
C          13.10861326527421  -25.33908148304435   -4.07429868491250
C          12.00787735955389  -25.42256766002745   -3.01431796765186
C           9.73837815072759  -29.06112704726976  -11.58554773235887
C           9.14105760282747  -28.79406838652555  -12.78150278091887
C           8.73278645950977  -29.95849420601798  -13.46557170011680
C           9.01427283937285  -31.10825616153140  -12.79733243643455
S           9.77598793665807  -30.77122901690834  -11.27485793162751
C           8.82563496345448  -32.51534423460239  -13.24796203818454
C          10.15730196832215  -33.12389332913640  -13.69654673096351
H          -2.57193807168533   -5.99928940943619    4.90368971002623
H          -3.33671423599233   -8.54027304551374    1.33276865895813
H          -3.72555129375376   -4.52167760283465    6.53784446475579
H          -2.81265904600958   -3.60443725878609    7.74122433922433
H          -3.52457343763659   -6.57247599687942    7.93771803746146
H          -4.29782703422128   -5.26197306996382    8.83766369442141
H          -2.60811575411497   -5.66652971441690    9.14396986033627
H           4.01592945219604   -8.92778234312068   -0.25526293544112
H           6.35219044167075   -8.42755819376851    0.41523616134964
H           6.78680930777504   -7.21701079019213    2.52459646704871
H           4.88135338383532   -6.51763932120423    3.95392680160726
H          -4.84012742513836  -10.13065305722656   -1.76495857599902
H          -5.20176204026143   -9.07737852781276   -0.39317508467975
H          -4.49993307543450  -12.04176975679361   -0.12364020742024
H          -6.13621626760764  -11.37297819543425   -0.05594235591113
H          -4.94914477091947  -10.95477650891018    1.18369508912838
H           2.16610605758739   -4.64633640147212    8.13448059522664
H           1.00262350363283   -0.67851450031664   13.97404957325517
H           3.52067222384127   -0.63492950083971   14.63656463998329
H          -0.79139606323401   -2.23620574945623   14.22443179436924
H          -3.14568342038058   -1.19707471624802   14.56433945489122
H          -4.41374347694028    0.82743075392212   11.71711232671217
H          -4.96256019638589    0.10698292797940   13.23861715285367
H          -5.02258648731967   -1.25983680904542   10.50034364050700
H          -6.42280488424522   -0.57504629702230   11.33453411079863
H          -5.58856984900326   -1.97939952452472   12.00975721354328
H           5.08624699551521   -4.41161038607578   11.85502796994261
H           7.13142150977731   -5.06023286859787   10.40604316052690
H           6.50795007591312   -5.09630156681076    6.73717156579892
H           7.83449793805646   -5.21777403095878    7.90495221606433
H           6.78074906819436   -2.62442831607558    6.66609682445327
H           8.28521828673395   -3.43805499570176    6.22163903478416
H           8.10421246239662   -2.72909611739571    7.83036285944764
H           2.94930818677452  -17.81315297583921   -9.81618914848842
H           5.37885827781006  -21.42030649567860  -10.72802280773752
H           1.88361243859509  -15.82702408024116  -10.89771665634759
H           1.08703371223005  -14.60778836736674   -9.89707391913564
H          -0.16889230046405  -17.21675649756404  -10.88748875176102
H          -0.52717783041200  -15.59926237552088  -11.49992055922128
H          -0.98240774636447  -16.04452999667464   -9.85108003751807
H           6.70405673507768  -22.58995666921110   -3.39898877732648
H           6.18574543762542  -22.01370681598605   -1.04178996590190
H           4.53141054373082  -20.24539063570960   -0.55015462342991
H           3.40501425553052  -19.06340624759449   -2.41895605166773
H           7.80723703131722  -23.77825829954532  -12.36449156011771
H           6.70022012199273  -22.42749212216966  -12.63726506332182
H           5.84261634820161  -25.29437921210014  -12.00879454697791
H           5.79118336754634  -24.53074183745479  -13.59868369979755
H           4.75303761674314  -23.93638294071514  -12.29747677230002
H          -0.63120633451798  -13.83339001454497   -8.71412557788238
H          -3.93928467639889  -12.10592257703193   -2.33848468480535
H          -4.89508727202991  -14.08434429893400   -2.82634203595174
H          -6.45633809113323  -16.13001126474697   -3.11149808323444
H          -7.04194480255640  -17.96591701666988   -4.83673877151289
H          -5.89553122675478  -18.14751644613584   -6.17400516826751
H          -8.33658555580281  -16.30770119403978   -6.18868015943620
H          -8.19750804199873  -17.84806507461375   -7.04347100752313
H          -7.17843523403280  -16.48119354353797   -7.50993592309911
H           0.74227354893719  -10.39959989378305   -6.02538591161906
H           1.31298682993745   -9.04483878937847   -8.16925246403902
H           0.49000086267252   -8.70241887488840  -10.59358173668458
H          -1.23271343611588   -9.04849532642633  -10.80500997206720
H           1.03048694990250  -11.03048889857976  -11.34785117406333
H           0.10539464517366  -10.16012200649168  -12.57631907682729
H          -0.69360571566094  -11.35796446695411  -11.55238537892707
H          16.94313141514549  -27.97361013160431  -15.14450418115104
H          19.27689357179468  -29.14377599457220  -18.72143010789440
H          20.37606744997656  -31.73521685022369  -21.96550860614262
H          16.95554034566761  -26.35928642138410  -13.09937205589364
H          15.65120908371312  -26.46370701851722  -11.90402299972953
H          15.33139051095357  -25.40964241854269  -14.75635729374132
H          15.42665737849632  -24.41731070409924  -13.29576479948697
H          14.05444720516149  -25.49894715364839  -13.53794515590260
H          15.26027893785742  -35.47819301279677  -19.57846078644642
H          13.36244214298910  -36.89052700787485  -18.83030398803616
H          12.02626775118144  -36.20521682655738  -16.86841603795507
H          12.59670231096232  -34.11195506472248  -15.66410522626635
H          20.82026300805575  -28.18265611309475  -20.71020278056775
H          21.46375185110525  -29.34494776563670  -21.88040006247194
H          22.17732987966181  -29.25193223476805  -18.90661683976107
H          23.20555374418488  -28.68845607725338  -20.22812060922143
H          22.82110916052941  -30.40593652487120  -20.07490762888814
H          12.38793264317616  -30.26055653049394  -11.63334134415523
H           9.21189028120843  -24.80768651218239   -7.74180317599420
H          13.01745926527303  -28.76402184282904   -7.32618359005244
H          14.11733354793706  -27.81515689164301   -5.16395465127252
H          13.24641404556143  -24.29369619297564   -4.36244990333560
H          14.04944575551882  -25.70720898794408   -3.65942870460169
H          11.07015543846457  -25.04642629472913   -3.41681562024481
H          12.27692440108901  -24.82934736704448   -2.14392308215517
H          11.86124597110086  -26.45401302742702   -2.70160050976719
H           9.01244213107249  -27.79753241974520  -13.16539551929793
H           8.25460029563291  -29.93977173845437  -14.42890742906877
H           8.11701800274487  -32.52660508361469  -14.07899139390995
H           8.41158247660260  -33.11583097995663  -12.43438418326627
H          10.59724897921319  -32.52881425707571  -14.49384829167138
H          10.00498023080579  -34.13898081871761  -14.05610644457115
H          10.85846294772658  -33.15010420195479  -12.86553228623694
