272
 SCF done       -487.127209946618          0.000836266558
C          -0.35052810093495    5.21531519384879   -0.07653235888151
C          -0.74201627729498    4.08838550269324   -0.82212933274224
C           0.11977725483175    2.97343691540735   -0.93947575431863
C           1.37946206427298    2.91407673612326   -0.34934395177605
C           1.78782535144060    4.06267160669263    0.35712988529806
C           0.92351610697117    5.17845466112508    0.47695194978026
C          -1.96109753601036    3.88778435465966   -1.53489505731290
C          -2.03107420922964    2.67983179250223   -2.12889306044947
S          -0.62468680211782    1.70491493483591   -1.87773780733446
C           3.02473520157134    4.29036280054096    1.00375517214733
C           3.10756299626727    5.49832906962901    1.63190531651685
S           1.64855036457568    6.44593680666390    1.43273917570623
C          -1.24509358269644    6.34090257133691    0.11439435254886
C           2.21643929290496    1.73642642300906   -0.44736149270422
C          -2.57208990266247    6.31949448994755    0.43652652097325
C          -3.13675687647665    7.60540132173899    0.55736569557130
C          -2.25099817297082    8.60984460876087    0.31772316668597
S          -0.67916654151375    7.97867295762640   -0.05009850635517
C           2.39922472340155    0.90988023321583   -1.52161691456015
C           3.29331336728790   -0.14804312721508   -1.26651898912006
C           3.78262764136414   -0.15196482296073    0.00417166209699
S           3.14181854867504    1.16961789884386    0.91730722170573
C          -2.47313261547512   10.08160667367396    0.38142246890575
C          -1.80401887211281   10.68769499525833    1.61674711961513
C           4.78795991992290   -1.06317937522641    0.61863711580310
C           6.15088876580911   -0.37542555950334    0.74063775939136
C           4.21990496071927    5.97392146219240    2.38036792166831
C           4.37313369066431    7.18377051476730    3.02801982415328
C           5.59685467580765    7.29917796726095    3.67926048506731
C           6.39555856513291    6.17856744768241    3.54015670340175
S           5.61146022164285    4.95695142997921    2.57999817120940
C          11.02744003695587    6.60510591513864    6.02940370344305
S          12.46698082836207    5.61938772227315    6.21347871840655
C          13.24305182106597    6.80861413645981    7.24520977029060
C          12.40820397061691    7.89505267410199    7.42415478499948
C          11.17955763003614    7.77510294276387    6.73634224401526
C          14.54169479806868    6.58127878780913    7.76309517853735
C          15.24258321240945    7.36602058678538    8.66007307006187
C          16.50099380570170    6.85758787395079    8.96248955885672
S          15.47322500344193    5.18804181177289    7.28908571842075
C          16.79387352583527    5.68045458517194    8.29855905893078
C          12.40153129750661    9.18425979476737    8.12468729389864
N          11.17095883276308    9.76046522436621    7.81058969442692
C          10.38429932156429    8.97969459151992    6.97929472365664
O          13.22340102800445    9.70419831261039    8.84240630099482
O           9.28211133465022    9.27909073453806    6.57809666557270
C          10.77493176000686   11.07249349409063    8.27408944682061
C          11.20865870775185   12.15782525238603    7.29477133476117
C           9.91756949662454    6.17871438305255    5.26244768585321
S           8.49222273114310    7.18423990623305    5.04560587120300
C           7.68822296158025    5.96456117617506    4.07067410611339
C           8.50174210905877    4.85849572544545    3.94329778587438
C           9.74286202868704    4.98460598748503    4.60305580628598
C           8.44884723907839    3.53619821624542    3.32028604303717
N           9.66907334013958    2.94019337442974    3.64049392655809
C          10.50306540643179    3.74867550059811    4.39944451335068
O           7.57743252020789    3.00335882969526    2.67305235783514
O          11.60688296366097    3.44300161729017    4.78916517246169
C          10.03605575336362    1.61426972594757    3.19288959476334
C          10.52864303883823    1.63278405543732    1.75017015545160
C          21.37883465348391    4.22279043142860    9.67070960777913
C          20.14800996961369    4.26292090251558    8.98477403218644
C          19.88242011438092    3.34281284705010    7.94012401510550
C          20.78999685808781    2.37523673659826    7.52095386415318
C          22.04391653897800    2.37418511736813    8.16717615927347
C          22.30300032266864    3.28564479753472    9.22129264596847
C          19.07257889807606    5.15960370405967    9.18474742157061
C          18.00352832983395    4.93102012778940    8.36483298314601
S          18.28177529476958    3.57749744086719    7.29039945974843
C          23.16805451584236    1.56044927267127    7.88903060514930
C          24.23676038163261    1.79863490887820    8.70714027155325
S          23.90044855535060    3.05558617461482    9.87645348001683
C          21.67694722548877    5.08905384282278   10.79259180330452
C          20.44158017297430    1.41928536043208    6.49007042728966
C          22.86257385825323    5.69612611082182   11.10017098666456
C          22.81962650390756    6.43244005005883   12.29995060633349
C          21.61356691126933    6.37973874641160   12.92790051355977
S          20.48824195804157    5.42122849275069   12.02448256208452
C          19.70476786881674    1.62771625766450    5.35746741292528
C          19.50620554613854    0.45995129799155    4.59558023699575
C          20.07088090393507   -0.64997518897523    5.14409307422324
S          20.88338756507357   -0.26230766482671    6.62432514306701
C          21.19092916985812    7.04957031448411   14.18954383581288
C          20.22751581824381    8.20512502169894   13.91059707777658
C          20.09370331635389   -2.04149914321640    4.61282617207491
C          21.47946144116501   -2.41140095439643    4.07924580857025
C          25.52815097433407    1.19752767140136    8.66262612029600
C          26.01521528901680    0.31340157603059    7.71628042225987
C          27.34249759853066   -0.03540660542882    7.93272355516168
C          27.88901723635325    0.56641706214162    9.05226429138968
S          26.72563568911446    1.58017665044820    9.85609791471435
C          33.02917458612722   -0.47785347567983    9.62401364903486
S          34.27054320447159   -0.08044410395540   10.79687551804697
C          35.52635532628945   -0.85184477338152    9.84412879401428
C          34.98419044063790   -1.38521787343523    8.69195107324033
C          33.59114662849007   -1.17500484873038    8.58013039194972
C          36.86763114593932   -0.83678076624340   10.29846471637992
C          37.99909862482277   -1.31644234856228    9.66692351303009
C          39.16395324485655   -1.10238272279738   10.40062806644768
S          37.26064032779536   -0.11859094585005   11.83578258174163
C          38.94579917757433   -0.46456398607878   11.60493582155205
C          35.42181311248271   -2.12095092621152    7.50077453186877
N          34.26286514719715   -2.30854876758590    6.74663788936016
C          33.12455192768019   -1.77253218990614    7.32792888816508
O          36.51685006417740   -2.50439937699471    7.16358210957640
O          32.01189803308007   -1.81168252410539    6.85280781881604
C          34.24719426582601   -3.02960425638359    5.49245223951446
C          33.99301647381407   -4.51674147197639    5.71332122348393
C          31.68662672702213   -0.06528196020923    9.79363315531572
S          30.43495462667029   -0.43633314366167    8.61816218170775
C          29.21654437864042    0.44852598502739    9.52535294640107
C          29.77984367655560    0.97692209446472   10.66653018148740
C          31.15194218664303    0.68397405238708   10.81547120034371
C          29.35858945206013    1.78755352346696   11.80910555444488
N          30.50816948135691    1.93147399718725   12.58828683470765
C          31.62304669494862    1.29868529857483   12.05941116342487
O          28.28344206836389    2.26913780594736   12.07663878732463
O          32.72532734098467    1.29419045037478   12.55902489643105
C          30.52901625779600    2.64726632608866   13.84548794816620
C          30.47015079485775    1.68785208741718   15.02906927116000
C          40.80788364709982    1.23993765807066   15.91554077864112
C          40.75670878873500    0.71519417821392   14.60779593907258
C          41.95114378802220    0.38186177313803   13.92201325070568
C          43.21940981061277    0.55748311846126   14.46355157104377
C          43.27349048229343    1.11734317955909   15.75718840553760
C          42.07791669049087    1.43817059427737   16.44791004334300
C          39.61174161172311    0.45773813494384   13.81952087859817
C          39.88932763395533   -0.09425475005775   12.60244891301797
S          41.60990081866709   -0.30344007064951   12.35314890927709
C          44.42202063318213    1.43509864043025   16.51965218746412
C          44.13988408911148    1.94082121656255   17.75789355630990
S          42.41760881361403    2.06588273918846   18.03751808125948
C          39.61379272879520    1.54171645218620   16.67713477019473
C          44.40559971727067    0.16802792390451   13.72828876244420
C          39.39752274098763    2.58774614469367   17.53143725201158
C          38.12263083345519    2.56747437403766   18.12902301476400
C          37.36372943620172    1.50036900339235   17.75687534333721
S          38.21891288229460    0.49598929287286   16.63628860307150
C          44.65171087891275    0.31700107368233   12.39198333093563
C          45.89500139311840   -0.20867031485204   11.98952294327168
C          46.59852846320795   -0.77864583995803   13.00516686236303
S          45.73153762019869   -0.65857353029972   14.50058037213460
C          35.96422761596432    1.16891616828939   18.14440730013243
C          34.99171552593049    1.43607127720871   16.99273333464430
C          47.95154178553368   -1.40067871316371   12.96637206132223
C          48.99041557793934   -0.51415102475664   13.65641253364198
C          45.06496223157955    2.35985722034693   18.75781763205654
C          46.44367602250333    2.41794523591778   18.65246454576156
C          47.05700682681574    2.88123547554309   19.80925860008633
C          46.16040675182623    3.17846739446354   20.82030658922533
S          44.52086246894087    2.87843070794626   20.31975065821200
C          48.55893069311723    4.95851826390019   25.17163216974232
S          48.06403262254809    5.43790365759257   26.78443272439958
C          49.70927570564601    5.81280798264716   27.26229017384239
C          50.57191081981468    5.57347234844977   26.21270334867816
C          49.92163716457974    5.09553906498215   25.05134116107910
C          49.99110769760956    6.28759392000064   28.57183724255536
C          51.21378731417954    6.62988492624166   29.10536141247718
C          51.12268764967749    7.05740681330413   30.43793708447300
S          48.71673812282562    6.50273554542279   29.74186457184911
C          49.84428566215500    7.04278937149934   30.91157367456252
C          52.00577351565241    5.66890018046766   25.91109697105167
N          52.12587491769948    5.24661516665582   24.58776476714626
C          50.92261952797673    4.87941169381371   24.00594602936244
O          52.93792813558285    6.02990501704488   26.58961847624832
O          50.78871739886712    4.48111308084029   22.87078128606975
C          53.39684502741300    5.16070710405641   23.90165417289938
C          54.01944744420949    3.77814900857888   24.06162557085768
C          47.62729112516080    4.51503425056820   24.20252167842390
S          48.11873132186091    4.01944569385096   22.58978156257167
C          46.46461217925047    3.66321501778966   22.11341704906929
C          45.61228101611477    3.93010943317377   23.16250366044513
C          46.26262891684258    4.39989029891338   24.32303895305816
C          44.17745191629620    3.86057459811982   23.43841738179836
N          44.04598721278010    4.29578107759596   24.75846138958752
C          45.25042609226616    4.63234668012402   25.35750665937665
O          43.25788942475275    3.52293096142205   22.73156900702068
O          45.37987228956406    5.03255748183085   26.49198744416196
C          42.77694619010106    4.33792266539131   25.45186296913522
C          42.49728789761558    3.02210431429688   26.16986247239742
H          -2.73215510118526    4.63262928378710   -1.60630778801599
H          -2.82954121878431    2.28218611952920   -2.72438963150064
H           3.84609223557803    3.59783221760911    1.00482631193609
H          -3.11687460835831    5.41083647047101    0.62241800847804
H          -4.16775198715953    7.77693339466350    0.81272966163797
H           1.94059803026569    1.07689487722899   -2.47944491924095
H           3.56490323304795   -0.88236218847070   -2.00429859518406
H          -3.54765962435985   10.27462571162500    0.41095516205458
H          -2.06418075369144   10.55479110087994   -0.51479670802304
H          -2.20527488750708   10.23865899247344    2.52252201058647
H          -1.97795859412892   11.76022078821261    1.65256937372747
H          -0.73165515318876   10.50820629584299    1.58862240031880
H           4.87988990290595   -1.95746985146942   -0.00186925247627
H           4.45066317190428   -1.36762963303858    1.61242988843488
H           6.51146104013352   -0.07656638191170   -0.24112919999021
H           6.87476665031939   -1.05472883622432    1.18427460679677
H           6.07845002098148    0.51242829255926    1.36505931552917
H           3.61420959583877    7.94592367824287    3.01945133867564
H           5.91112890592918    8.16152786360761    4.24063375484307
H          14.84136914759689    8.27655478074871    9.06707406999773
H          17.18796329086430    7.33445217582140    9.63682433646510
H          11.24395831544658   11.22951211513662    9.24836580217940
H           9.68742724906125   11.06726454692697    8.37978781854112
H          12.29045112694233   12.15058456917233    7.18198277893222
H          10.90162712551004   13.13195708645001    7.66469275758140
H          10.74957544882500   11.99084112366814    6.32301412271140
H           9.15192832015221    0.97708429690970    3.27958345813788
H          10.82048203309163    1.25626325623056    3.86366933186280
H           9.74375105430301    2.00086003069431    1.09371956611492
H          10.80071063187204    0.62744484839321    1.44129258870816
H          11.40060362036471    2.27629443804105    1.65772099659611
H          19.09238969808303    5.95545598906483    9.90462626995946
H          23.19194243577757    0.83227783320906    7.10063739747376
H          23.73139075700670    5.64946249109593   10.46928004931412
H          23.66139128344638    6.97857249825310   12.68715020862217
H          19.34446770638232    2.59455001942748    5.05650816181962
H          18.95582194569871    0.44489527046205    3.67162398877364
H          22.07988331163921    7.42559571906693   14.70014831254530
H          20.69990679599783    6.32557702052279   14.84477022494426
H          20.69796003672896    8.94247765034481   13.26388198805614
H          19.94072604871139    8.69004690028071   14.84021263308698
H          19.32963186909393    7.83625624085918   13.41972029392822
H          19.35745659705555   -2.12121641928991    3.81032728132815
H          19.81578535131807   -2.74261265965337    5.40399492451906
H          21.77640026914672   -1.72663805773720    3.28754079406776
H          21.47282580852509   -3.42275345371193    3.68050326158155
H          22.21575877804741   -2.35762812387361    4.87830451224427
H          25.42731370520954   -0.05099331358354    6.89407241023001
H          27.90925995350063   -0.70021165121631    7.30469893206251
H          37.96220704707319   -1.80015922528771    8.70730810522749
H          40.14558365686855   -1.40076795825113   10.07776713512717
H          35.21827579691773   -2.87594909607270    5.01569905713741
H          33.45611773928882   -2.59566969195891    4.87611259182125
H          34.77603662009508   -4.94231401078343    6.33667466298975
H          33.98519670850550   -5.03477328184093    4.75856218135588
H          33.03199323078112   -4.66470659579263    6.20065631766949
H          29.66354285316712    3.31389014663857   13.84516767750619
H          31.45097077126753    3.23368793493051   13.88309742451871
H          29.56024023525301    1.09332536728469   14.98831882777767
H          30.47984774292955    2.24994970312151   15.95863776340185
H          31.33050724587247    1.02291825458685   15.01206156771535
H          38.60531995422215    0.67660953719641   14.12571866541617
H          45.42535391389082    1.29883286436951   16.16350850518110
H          40.11293532710406    3.37238799383713   17.69815537628133
H          37.78215915530477    3.32045019661743   18.81746798486837
H          43.98005747242308    0.82210159577878   11.72179035903690
H          46.25307743221537   -0.16795495198675   10.97607259051648
H          35.68683576889298    1.77545520142636   19.00917383209023
H          35.90024980654788    0.11569392429012   18.42947371152725
H          35.02901615782831    2.48294051886840   16.69997824935661
H          33.97569219833765    1.19528364603805   17.29524830760880
H          35.24994472498798    0.82790057263322   16.12881162237040
H          48.23486423956760   -1.55712168309037   11.92349480281968
H          47.92500051759735   -2.37342861637148   13.46399853070833
H          49.03896051963049    0.45893000429638   13.17261764525478
H          49.97298098636092   -0.97649487447184   13.60796323383532
H          48.72570714215058   -0.36883017308271   14.70143504482007
H          46.97829231884115    2.13810541911182   17.76352540610640
H          48.11907959164321    3.00338281424248   19.93046790103030
H          52.13004943937854    6.56896948701053   28.54685511596238
H          51.96932900786048    7.36545448208138   31.02439090283307
H          49.49769471410549    7.31920536036736   31.88790253241240
H          54.04951968252769    5.92468867916313   24.33071911006038
H          53.21467492681748    5.37581516819720   22.84595817849194
H          54.18786701021971    3.56198425577657   25.11412995524502
H          54.97144938208952    3.74039934766198   23.53981309729945
H          53.36044976415189    3.02003002688602   23.64479094125107
H          42.00490879671309    4.53582773489785   24.70447446624832
H          42.82227873450313    5.16079448968073   26.16934978380779
H          42.46149276228237    2.20456876156174   25.45340698092377
H          41.54242489702771    3.07862902642493   26.68470577987464
H          43.27777449727015    2.82055793066894   26.90012476928347
