224
 SCF done       -408.843875726877          0.000508293940
C           5.24000309672964   -3.55840031786657   -4.33272825576639
C           6.02506265475906   -4.26266402679092   -5.26277464687035
C           7.42015143197072   -4.04328529858025   -5.32915870150338
C           8.09403271056928   -3.14502858837968   -4.50403594602362
C           7.30313005271666   -2.41843663706927   -3.59303297016876
C           5.90418443107537   -2.63401376528498   -3.53572853078764
C           5.59589196070135   -5.22463204210995   -6.22484668533391
C           6.61089661335451   -5.72897168992970   -6.95357028049122
S           8.15386866758659   -5.06733979582407   -6.53548434982534
C           7.71574230925849   -1.42635830923160   -2.67100668458097
C           6.70021049394058   -0.91750997917103   -1.91610109534864
S           5.15544904504976   -1.63540357880816   -2.31856482300055
C           3.81657248856223   -3.80624184525644   -4.20639981099153
C           9.53186384363667   -2.98464123704165   -4.58476483338164
C          10.31499520294044   -2.99557562335472   -5.70411669247105
C          11.68775673917494   -2.85177506209055   -5.41188595870069
C          11.97476911209526   -2.73305617074425   -4.08353513525161
S          10.51688674946733   -2.80772280195047   -3.15711231521132
C           3.16949726375718   -5.00849848977230   -4.16455762819219
C           1.34737755895558   -3.59297080959321   -3.96855732411618
S           2.68202491338784   -2.49295003196929   -4.07467316202038
C           6.79936744990257    0.08131639368091   -0.90734958696145
S           8.34795259629886    0.72111494225102   -0.44735669789102
C           7.60425836430174    1.78167545476636    0.71409633749308
C           6.23448559809384    1.62043118531436    0.72668415847731
C           5.78377087793202    0.66246025346731   -0.18126998166914
C           8.43147828061849    2.66326024192116    1.48121287258093
C           7.98156551539593    3.64451447959733    2.35567544805795
C           8.82941299378758    4.50415617630805    3.06995344481219
C          10.21685552778731    4.47268510452512    2.98837443262194
C          10.70211677999686    3.47220261072541    2.11337632546619
C           9.84196770846794    2.60287017209182    1.38796234325712
N          11.96030311517671    3.14412970158006    1.79257624712376
N          11.83512984243949    2.15799764255642    0.94940510264671
N          10.61820172556539    1.78663504281633    0.66583026418785
C          11.11278441253901    5.34117658201924    3.69020496447541
C          12.97637638367337    1.51158359441977    0.36538866337765
C          12.89132333210201    1.55357992982460   -1.15532222232658
C          10.82963902843856    6.40204715889129    4.52616037929416
C          11.96788877276735    7.03004639575503    5.02545468227886
C          13.14415373322330    6.45859119460334    4.58439628732569
S          12.82994527769139    5.11920254529872    3.52603529235422
C          13.30357905112619   -2.60959488590356   -3.42328367220438
C          -0.03881715444566   -3.07735355285226   -3.79010110866167
C          -0.25142183705203   -2.54919453307666   -2.36977560074043
C          13.84569798926017   -3.98258519186344   -3.01911567534926
F           6.66012299902468    3.82238086187365    2.55233192181821
F           8.21693796853564    5.39949791610614    3.87026289872342
C           1.77283402899219   -4.88435765424604   -4.02302825500934
Cl         12.89403135331181   -2.81566250066301   -6.64032933362278
C          16.93736756929033    9.11436443410234    6.47179295931234
C          16.24336184086555    8.09819665446178    5.78699641229156
C          16.95396232994113    7.04767807301726    5.15660572987605
C          18.34256725661332    6.94377062846251    5.17981714109341
C          19.03925040301920    7.97749731934307    5.84043735244171
C          18.32347379920614    9.03695011557843    6.45182732474961
C          14.84408102917958    7.97395345716101    5.61590271627320
C          14.47000544450839    6.86394531557038    4.91426817906312
S          15.85518424119358    5.91606869755574    4.41215133142456
C          20.43724822470069    8.14019782047867    5.99206894303085
C          20.79034466253489    9.25129946668825    6.70153569131447
S          19.39695244215342   10.17737564910641    7.21414162778637
C          16.23052724108380   10.16251251073071    7.18023865316521
C          19.01879376018254    5.81934212223860    4.56508589662178
C          18.67828708903550    5.16360885557481    3.41562236365801
C          19.53190480664372    4.07664897873797    3.13333439581573
C          20.52449232148251    3.88213039511499    4.04848656206027
S          20.40521840235410    5.06383628063333    5.30483214508673
C          15.14340124005422   10.04149916000057    7.99950624372267
C          15.46778057072457   12.32994376278091    8.14030468199462
S          16.73670152167942   11.82446811397043    7.07405811150432
C          22.10041283957447    9.68577111953426    7.04559364937590
S          23.48966409165687    8.68787916203915    6.73890277289030
C          24.54505876133727    9.88244948440646    7.43691223994652
C          23.83231787382352   10.98129987785406    7.86998488827984
C          22.45990229565368   10.86729052249830    7.65561948192757
C          25.95098443199872    9.62410606301702    7.51366622081332
C          26.91404677836870   10.51595348654890    7.96602929390839
C          28.27684532035995   10.20263278823169    8.05273571473970
C          28.82660727276754    8.97436892057103    7.70306889535784
C          27.87028424502367    8.04567608848830    7.21915517476252
C          26.48571405564823    8.37053713916193    7.13277223761741
N          28.00266936777239    6.78319153910827    6.78508489654288
N          26.79026488173944    6.41312862630235    6.47643771587204
N          25.84900639212725    7.29485728012520    6.65827976887792
C          30.21378801699063    8.65220438313242    7.83993926752049
C          26.50264553440580    5.09510798890635    5.98261513479841
C          25.62167046780466    5.16984537148325    4.74315045109028
C          30.82069523739643    7.44606343928522    7.55377176435354
C          32.18604895982538    7.43352814790348    7.83398404829285
C          32.64960497496603    8.63142624415982    8.33412096098639
S          31.37024832601784    9.79518652826457    8.45913890243626
C          21.56633715390402    2.81885620418291    4.08413938513284
C          15.34143639763755   13.76169939157044    8.53119739914861
C          16.47504655000009   14.17852389713346    9.47056606083694
C          21.08706953639696    1.60536402296406    4.88457836432302
F          26.56595075296986   11.75757833245308    8.35593835992591
F          29.07975073326497   11.17951138387198    8.52122813057260
C          14.71881822833224   11.26863105135885    8.54630135729980
Cl         19.33667819183352    3.08869756523854    1.73678359028924
C          36.49783792780459   11.28268614698146   10.10772334104053
C          35.76188740203919   10.20225239644177    9.58240807377702
C          36.38301888651990    8.94518808281678    9.38328341969708
C          37.71672360893854    8.69608111949149    9.69018496861974
C          38.46109370078074    9.78480041690142   10.18916275765718
C          37.84024251009648   11.04509734107646   10.37369886713985
C          34.40001291478573   10.18669689728260    9.19807147530775
C          33.96552728316394    8.97217714394784    8.75390960569083
S          35.24676363433998    7.77453112854157    8.76513831867283
C          39.82768541860442    9.81810288682894   10.55393046465595
C          40.24367829415376   11.02878268394506   11.02744782844493
S          38.95579744750451   12.21399781052351   11.02724042290130
C          35.86695075512281   12.55979030418994   10.37261499860831
C          38.28987763010453    7.37563286250149    9.52318747593261
C          38.05947690905202    6.48045911725215    8.51809901116846
C          38.75803431896409    5.26702025143896    8.69733839011848
C          39.50679223576698    5.20728992500112    9.83551825452392
S          39.36552445454377    6.69265724330714   10.71180972478936
C          34.65332870336196   12.79958709041794   10.95364333340500
C          35.31814728474880   14.98188410579117   10.55682793805484
S          36.64953598145418   14.05572411106841    9.94681959568695
C          41.54256839626158   11.37130362356975   11.49613594957551
S          42.80113322933335   10.17551047567814   11.58552108605446
C          43.91715720359131   11.34564029735542   12.22802295931568
C          43.32031658747989   12.58286073319609   12.35128367243527
C          41.98696278607390   12.59587481948097   11.94267359598376
C          45.25240166596130   10.93863219463997   12.55098007687343
C          46.25486295459725   11.76052049937363   13.04624070582221
C          47.54826100914541   11.30850095649382   13.34979986173893
C          47.97862264436773    9.99803106462350   13.19308647057324
C          46.97655996823518    9.13193935726783   12.68790326565608
C          45.66448429193114    9.59540485629240   12.38197684311959
N          47.00207800436696    7.82009722502788   12.40782843061288
N          45.80065176909769    7.55244880158494   11.97823776097577
N          44.96187059512599    8.54835835871595   11.93592703451676
C          49.30126421068449    9.53728447536862   13.50359338814592
C          45.42726937315884    6.23734667807492   11.54149515565840
C          45.22531365809584    6.21966476530937   10.03040795308097
C          49.77907682015408    8.25440753459640   13.36828109122020
C          51.12043682059893    8.12340687473543   13.75777197512259
C          51.65833387830386    9.29909016193821   14.18629622936236
S          50.54000395450448   10.59252374137165   14.12404685079562
C          40.39714859963895    4.11707911838573   10.32083410096408
C          35.35954635642945   16.47042642416226   10.52174206573723
C          36.35837313684844   17.01946101828020   11.54253459368316
C          41.87001137817746    4.50482300415857   10.17381655216996
F          46.01968658667236   13.06927658627576   13.26177277224412
F          48.40386969099870   12.23645880947194   13.82309661528078
C          34.34924054856408   14.17072447479135   11.06212415095843
Cl         38.65989738678972    3.97484488374542    7.56258495355041
H           4.56706221950743   -5.50073093827637   -6.36434034439071
H           6.56296941325502   -6.45852451080132   -7.73815167372710
H           8.72677573584620   -1.07880128153577   -2.56629305413848
H           9.93485205959463   -3.06704343847046   -6.70588215443733
H           3.68291060316046   -5.95328787845124   -4.19213795333359
H           5.57865284667541    2.17329630532881    1.37276962308107
H           4.74962370698045    0.39791775641550   -0.31497631661007
H          12.99803492576203    0.47246626459940    0.70869354894317
H          13.85700559961636    2.03752653114488    0.73794044585487
H          11.97284228021630    1.07479021915387   -1.48469020316773
H          13.74041664602932    1.03183871108918   -1.58726604955825
H          12.89702437704309    2.58148692018777   -1.50921813275352
H           9.83234701831118    6.71740137793028    4.76852698186475
H          11.93468868795982    7.87099787533389    5.69370260749485
H          13.21092828787300   -1.98006899637370   -2.53607177707588
H          13.99789799705513   -2.13387928723263   -4.11899308696942
H          -0.74481529452973   -3.88561090632970   -3.99248333115553
H          -0.22635300206709   -2.27080058866472   -4.50300410841086
H          -0.08061090547282   -3.34016239267584   -1.64296177144845
H          -1.26733800950688   -2.18066479350777   -2.25209709174447
H           0.44124485223125   -1.73624299134639   -2.16438200115125
H          13.16529608281526   -4.46582480035756   -2.32186176468057
H          14.81765288935897   -3.87811266437614   -2.54399362351670
H          13.95272976161616   -4.61723456595133   -3.89507777227867
H           1.10677957653850   -5.72727909958556   -3.96539895428459
H          14.14381589758810    8.70301985340078    5.97745156772714
H          21.17466938483710    7.47385289509232    5.58444777328574
H          17.87392411446550    5.45788174794071    2.76799739535822
H          14.69111726312360    9.09545927174337    8.23913163535275
H          24.28547288002263   11.83679720402063    8.33425454304090
H          21.74216421297890   11.61966107758531    7.93143095400193
H          25.98945456677873    4.53413491377765    6.77056931288393
H          27.46295758957519    4.62118299318070    5.77256646216790
H          24.70457855214470    5.70356215087655    4.97803853971969
H          25.37665688182508    4.16736008675856    4.40433539448691
H          26.13476067550494    5.69399527795307    3.94088359905450
H          30.26948215796055    6.61240795774350    7.16039901885423
H          32.82777228586843    6.58327270803303    7.68420367203010
H          22.47533763025582    3.21818792050218    4.53843113981577
H          21.79218718023472    2.51382884921984    3.06002622762049
H          14.37894351301197   13.90825753054430    9.02581204173188
H          15.36766574511772   14.39104710069785    7.63820386170275
H          16.45938973612265   13.57312741286729   10.37401039706577
H          16.36937403870566   15.22381997651606    9.74946713946065
H          17.43683090706341   14.04299485651997    8.98118790853242
H          20.85984481110880    1.89465257542513    5.90812401315148
H          21.85664085406807    0.83785449182314    4.90069974022669
H          20.18923034909573    1.18907934171592    4.43456201215459
H          13.88400351408275   11.35932297830890    9.21882474414206
H          33.76039712801126   11.04992744152580    9.22990285732843
H          40.49933832546328    8.98408265718687   10.46776378962257
H          37.44717463498869    6.68198220033283    7.65920274843374
H          34.01638267112169   12.01967246269090   11.33116994787958
H          43.82781018481872   13.45107861314792   12.72762907896255
H          41.35736795168169   13.46783402157434   11.96833694789397
H          44.49877667650176    5.96059340856454   12.04722230453238
H          46.23026234091443    5.56283517593810   11.84218370894395
H          44.45490484101384    6.93500631205411    9.75464261682814
H          44.91846091663355    5.22854036352846    9.71047831534436
H          46.14902300862297    6.48319110427340    9.52101096044196
H          49.16848262311424    7.45167158365877   13.00024461149927
H          51.66530510825137    7.19699446873705   13.72250422340282
H          52.65435026385259    9.48277466972078   14.53785266447780
H          40.19113820225425    3.21505352578766    9.74198968316164
H          40.18275115583789    3.91015372067243   11.37210777290912
H          34.36080349775283   16.85518467071927   10.73827551626165
H          35.64783004936019   16.80719625597797    9.52291846666265
H          36.08207969565915   16.70734393642221   12.54713409672222
H          36.37579521555165   18.10585056963325   11.50736190706794
H          37.35738792823390   16.64679646528863   11.32786390055940
H          42.10618629727379    4.69321782217780    9.12907778047319
H          42.50717553359686    3.70250759941235   10.53769308247293
H          42.07746237549693    5.40724101770363   10.74466277401238
H          33.43788654833308   14.54087003473981   11.49735998831257
