218
 SCF done       -354.046485175582          0.000901032113
C           3.57742138624338    7.56175324853841   16.56804439116807
C           4.28761245980746    6.77436008030147   17.45158025715838
C           4.70812590738180    5.46813789598072   17.13477220941701
C           4.44636779383524    4.85598292271198   15.88787456779640
C           3.72738478568267    5.65983044390907   14.96724988794330
C           3.30475462670490    6.97428338650362   15.30437272601856
N           3.31094330222897    5.41459604490909   13.71920596654794
N           2.69577120529999    6.51046318490364   13.36248949943955
N           2.65345451900471    7.47059779248123   14.24835004642424
C           2.06347309508722    6.64438054065457   12.08187393532441
C           0.54662417244559    6.58636272859067   12.23047289753669
C           4.84976518619207    3.54119081567463   15.59129593544323
C           5.52075196283952    2.73807474553651   16.49005888985138
C           5.80925943394375    3.32479211793714   17.75431460202100
C           5.41522700722668    4.65849379314665   18.06045572441882
N           6.43589924359358    2.83988665436205   18.83358405021730
N           6.40415791217111    3.82132494215247   19.69705175320994
N           5.81930171245936    4.92258870702634   19.30793911755698
C           7.02248749832797    3.70897833772024   20.98668001061959
C           8.50574598671485    4.05702788715815   20.90208977306607
C           3.10614823936693    8.88259475291646   16.86583284552764
C           3.31634454528354    9.63718887755826   17.99714568400580
C           2.69329115937992   10.89211099370273   17.98122441397891
C           1.98334419318810   11.10312679060460   16.80807045440658
S           2.11280798458864    9.73547356991878   15.73026949431502
C           2.77204443991669   11.89773098526421   19.08871571181786
C           3.62734464785722   11.46094196975729   20.27135484429835
C           1.20267742906700   12.21566474930018   16.39026260479408
S           0.96589019043882   13.64592317936804   17.36027455408120
C          -0.04410645047888   14.36983800332120   16.14131194371214
C          -0.17310961779469   13.53420888376339   15.05695357670395
C           0.52244382090382   12.33315062879108   15.19620355167147
C          -0.61535159805840   15.65922362297961   16.33840528027806
C          -0.48456955368359   16.49463456502530   17.41855633481141
C          -1.19475614631398   17.70040778204615   17.27445091810618
C          -1.86061694902459   17.78100439413873   16.09293986593649
S          -1.63591228837263   16.37932399504692   15.12246840562736
C           5.88666688610901    1.38469287499857   16.19385301763002
C           6.45543983079520    0.45829970984827   17.03253119814968
C           6.64643079038953   -0.80834421383785   16.46008781905063
C           6.23165206235772   -0.85806446628813   15.14099480222270
S           5.59330836431016    0.68628071464910   14.62843470452935
C           7.28643957150893   -1.92995406913768   17.21644548492734
C           8.75869883188936   -2.08359938849721   16.83113566328704
C           5.46828042558871  -12.47119093866591    9.47644461582836
C           5.58213147375749  -13.14889930838394    8.27950225005707
C           5.26425954949165  -14.51546199104999    8.14825071752586
C           4.78386921041499  -15.29906012162962    9.22199629072882
C           4.68457159872173  -14.61911163877377   10.46184822241459
C           5.02959448853727  -13.24609881777029   10.58280990053570
N           4.30210345087276  -15.04316827603655   11.67216467508948
N           4.42171538610634  -13.99023957573849   12.43605642781430
N           4.84392861860933  -12.89603630724600   11.85917160702667
C           4.07809630062071  -14.02060423954833   13.82849602173168
C           2.78207129189901  -13.25501649868150   14.07377982741731
C           4.42590679991588  -16.65158176781771    9.07292067733193
C           4.53724578143811  -17.33257850784503    7.87931481120494
C           5.05474648505620  -16.58632598131587    6.78405004928828
C           5.39691978875175  -15.20992055108700    6.91800639582991
N           5.29434704532469  -16.93227612535913    5.51303798469317
N           5.73930615184735  -15.83607326326402    4.95594558783500
N           5.82664095121690  -14.78371659789410    5.72518276238200
C           6.15904579483996  -15.80614912930173    3.58452047299225
C           7.63292973032485  -16.18379581086519    3.46716477370329
C           5.73895345254929  -11.07288240411565    9.64543590678046
C           5.98588965892542  -10.11713472285311    8.68657622039342
C           6.16661897598285   -8.82239303542893    9.19220576792945
C           6.07134638251648   -8.78923377421711   10.57528311683821
S           5.73756531614198  -10.37184658185370   11.23057093023426
C           6.43410809629281   -7.60578820267253    8.35944086326958
C           6.67395484388332   -7.89911441168464    6.88374803252346
C           6.18454055877986   -7.70134828332213   11.48424765268070
S           6.15565214631245   -6.02692027855577   10.99603857359711
C           6.26816306891891   -5.49058861603907   12.65017426674885
C           6.34146503710502   -6.56620680649721   13.50670334044525
C           6.28692542301949   -7.79745768651961   12.85648587322862
C           6.24030533915615   -4.11058286065947   12.98056247629238
C           5.99706585691976   -3.03115099156099   12.16272967411318
C           5.98295386162668   -1.81285944431607   12.84263908824148
C           6.22636974385521   -1.92266955140552   14.19518103477324
S           6.48044929106209   -3.59360680747037   14.62691519054425
C           4.14555308979526  -18.70477856164095    7.73620689859741
C           4.35626307102917  -19.54063637449775    6.66739343135679
C           3.83891842100264  -20.83560599916473    6.83290027675257
C           3.21063393606476  -20.99094135455137    8.05644779564890
S           3.27505694181496  -19.52592706921616    8.99610738081182
C           3.91437462211064  -21.91350314687700    5.79319652158584
C           4.11911833106740  -21.37984448650106    4.37893884426491
C          -5.28869227220239  -28.19093906084813   14.66045037152491
C          -5.53184884100709  -29.46213739399074   15.13892395461806
C          -6.68024342151615  -29.78386576342135   15.88982752894355
C          -7.67917915709950  -28.83803335855353   16.21118393487785
C          -7.43948260931193  -27.52760514679119   15.72652111607416
C          -6.27328063768151  -27.21728850824673   14.97551936369932
N          -8.15481432676723  -26.40171236606223   15.83625725796455
N          -7.45209718940359  -25.50827076318148   15.19221914458809
N          -6.33154624030343  -25.91995527882895   14.66028876496955
C          -7.87096831834915  -24.13962273184650   15.09527369661901
C          -6.97581153887153  -23.24706735229219   15.94820200000291
C          -8.82651964411122  -29.17118733316102   16.95700177076969
C          -9.06998150760745  -30.43900942274353   17.43746802429703
C          -8.07989859149913  -31.41688993623254   17.14070197314872
C          -6.91714892778452  -31.09193612790617   16.38478653830694
N          -7.99937512993604  -32.71719678529359   17.45045480783553
N          -6.87506700808043  -33.11128850198572   16.91165956996951
N          -6.18573986072649  -32.20606059498317   16.27010848897524
C          -6.39975714118186  -34.45620850204664   17.06407775894075
C          -5.60675953984329  -34.59994576958331   18.35989625418501
C          -4.13513603513455  -27.82513817684384   13.89054438852355
C          -3.14803258402671  -28.63450981717143   13.37701177123978
C          -2.15647831729236  -27.95452914800602   12.65687362693569
C          -2.38431026982989  -26.58649140293648   12.62678099328392
S          -3.84545178424749  -26.16505468422915   13.48433805330303
C          -0.98056204006099  -28.60636918742658   11.99598578354673
C          -0.87331506375937  -30.10524592365299   12.24680081665983
C          -1.63405700299852  -25.53856700491714   12.02637331700740
S          -0.27164154051792  -25.80528105442399   10.96976294855810
C          -0.04855461345674  -24.09346923888293   10.73921597296919
C          -0.98298502988844  -23.38037173032822   11.45602053756494
C          -1.86882749422511  -24.18634686554121   12.16839634012066
C           0.97546713466127  -23.59021517907070    9.89306717660959
C           1.84111843280270  -24.28646765017504    9.08203931858403
C           2.70972649420869  -23.46606710624368    8.35513726859724
C           2.53125267707072  -22.12355149099911    8.59920763128499
S           1.25456590839621  -21.87676883997355    9.76244136728154
C         -10.24600239131169  -30.77049375896056   18.19398956927008
C         -10.60151476591943  -31.98334170060692   18.72025413772718
C         -11.83524865038412  -31.96566776978450   19.40841623292302
C         -12.40254396805872  -30.72730884385433   19.39744526069224
S         -11.45755052145873  -29.56782683913263   18.55319643612860
C         -12.41553826662026  -33.15992892698106   20.09913838453328
C         -11.69354855381941  -33.42612423737868   21.42068088820672
H           4.53478066221367    7.13911805841799   18.43580223394390
H           2.43043674005143    5.82741714533152   11.45855576659613
H           2.36147520464183    7.60509286761006   11.65410670805230
H           0.24308443105881    5.62684267336945   12.64229493400803
H           0.07335581705167    6.71765482286043   11.26160615483844
H           0.21293893073588    7.37697996831283   12.89799359972847
H           4.60088410033746    3.15539198173992   14.61344180990505
H           6.89196934925466    2.68044765918581   21.32974688958287
H           6.50400632508883    4.39677288286393   21.65710279330446
H           9.00870010959703    3.38328817059931   20.21266652046535
H           8.96457163622736    3.96440410405622   21.88235732364957
H           8.63181780548981    5.07797085468359   20.54999396333186
H           3.91335926675107    9.28343797966317   18.81635910322817
H           1.75745626641930   12.11384273506659   19.43948135085847
H           3.17070973079280   12.83379500236076   18.68393470961659
H           3.22663122845215   10.55831707893841   20.72670485314168
H           3.63816436677715   12.24593376131112   21.02407153139121
H           4.65223944906707   11.27407625817980   19.95924195566654
H          -0.75852218458725   13.79643947301711   14.19323318339672
H           0.53765619215274   11.55729267724621   14.45151176159771
H           0.10509482660644   16.23862405368304   18.28086642849068
H          -1.20978651862191   18.47626384221582   18.01896743548323
H          -2.47454864737195   18.57831188695646   15.72436914188118
H           6.71794526182338    0.70014645321040   18.04637790218350
H           6.75898038183440   -2.86627791777210   17.02502348661664
H           7.21425966206366   -1.71348626376947   18.28401228715897
H           8.85458013514563   -2.31734115504030   15.77374477900948
H           9.21711336113149   -2.88545412556404   17.40461581720399
H           9.29762231900145   -1.15967200272193   17.02979832609993
H           5.92691235634251  -12.64092716564458    7.39275077265407
H           4.89575371632819  -13.56270952873219   14.39116885685682
H           3.97478186989929  -15.07057898230120   14.10683542841392
H           2.89407657722601  -12.22656086397097   13.73957255405856
H           2.54409107365242  -13.25883302269449   15.13364712593724
H           1.96168032504446  -13.71524529444066   13.52831390115057
H           4.04892316563391  -17.16249969158530    9.94688255820960
H           5.99325008523182  -14.79322145419658    3.21275364812634
H           5.53754831820733  -16.51501234904141    3.03353252678454
H           8.24390705262247  -15.48586950978201    4.03458197294166
H           7.94137768276049  -16.15508357002340    2.42594398520822
H           7.79478672967828  -17.18690301609800    3.85460502565924
H           6.01895759181581  -10.35415370346379    7.63971387222763
H           7.30548243160310   -7.08509723458707    8.76902511791489
H           5.58450764614539   -6.92143930170111    8.45661352957167
H           7.51169769772887   -8.58123274052349    6.75773101603529
H           6.90398635116988   -6.97430192637308    6.35950774050933
H           5.79027441410577   -8.33756680010675    6.42616797853900
H           6.42127313923714   -6.44835017353339   14.57313361915731
H           6.32151110783523   -8.74655379928771   13.36123074790630
H           5.82581357622573   -3.13544453443996   11.10583675895034
H           5.80078731273471   -0.86441440352119   12.36861347866489
H           4.87048995843638  -19.19835432349189    5.78948865280467
H           2.98939941201543  -22.49558761657771    5.82936138187854
H           4.73839827213265  -22.59155109407735    6.04026542037798
H           3.35326606425007  -20.64779441196275    4.13354726762633
H           4.05727335473766  -22.19778947578190    3.66426604736956
H           5.09471522985232  -20.91177569177949    4.27511269789750
H          -4.83226434010758  -30.26165871773609   14.95336451457122
H          -8.90726865338469  -24.10081467348197   15.43461543233259
H          -7.80974401156242  -23.83748909145334   14.04641129252515
H          -7.04900516669792  -23.52755110576751   16.99623396620077
H          -7.27706375730767  -22.20892241045775   15.84107466263977
H          -5.94227806145019  -23.35134881482959   15.62746278465423
H          -9.53679624015958  -28.38024527437783   17.14897841040887
H          -5.76919584012422  -34.67966788532922   16.20158251655990
H          -7.26962210812188  -35.11626902675512   17.07446693088042
H          -4.74960022242531  -33.93107356032750   18.35050880861889
H          -5.25405510017414  -35.62172109757235   18.46746682038995
H          -6.23513408668486  -34.35280833653481   19.21215538690003
H          -3.15362117417272  -29.69930458316809   13.51544038415918
H          -0.06596221889571  -28.11724003771184   12.34648714647125
H          -1.03995514281488  -28.42542180854049   10.91751271880624
H          -0.79416679414225  -30.31359026499577   13.31130731390200
H           0.01507252060676  -30.49554902960147   11.75554146281276
H          -1.73937478926948  -30.62837471237793   11.84828789269058
H          -1.01382763513334  -22.30499988725396   11.45037732576820
H          -2.66788652114657  -23.80731342099020   12.78048961903515
H           1.83715051931531  -25.36080095327381    9.02267259268534
H           3.46877364364839  -23.85069188772658    7.70005442166401
H          -9.98857218049056  -32.85828823869374   18.60527885255885
H         -13.33240038914781  -30.42293042329344   19.83674091908069
H         -12.31648800250405  -34.03367239199483   19.45098555504494
H         -13.47741803500087  -32.99284097870667   20.28988879725058
H         -10.63372613651540  -33.59557611585080   21.24545103885332
H         -12.11010498288412  -34.30255389879476   21.91195112271257
H         -11.79823903936071  -32.57221161956690   22.08644168872547
