# ORCA input file
# SCF done       -456.003418483354          0.000491115044
! wb97x-d3 def2-SVP def2/J RIJCOSX Grid4 TightSCF
%maxcore 5000
%tddft
    Mode sTDA
    Ethresh 5.0
    maxcore 5000
end

%pal
  nprocs 6
  end
* xyz -1 2
   C        1.28662        -1.00603         4.89350
   C        0.08372        -0.74619         5.57578
   C       -0.26905         0.58216         5.91216
   C        0.52771         1.68559         5.61927
   C        1.72369         1.42698         4.92321
   C        2.07255         0.09796         4.57741
   C       -0.87638        -1.68053         6.06512
   C       -1.89744        -1.09331         6.72061
   S       -1.77241         0.62913         6.79300
   C        2.67611         2.35820         4.44730
   C        3.71692         1.79290         3.77000
   S        3.56726         0.04843         3.68113
   C        1.71563        -2.34488         4.53686
   C        0.14830         3.02044         6.03507
   C        2.98119        -2.85437         4.60157
   C        3.05606        -4.18713         4.14515
   C        1.87050        -4.70424         3.71096
   S        0.61545        -3.52764         3.88526
   C       -1.09660         3.58164         6.03626
   C       -1.10031         4.89546         6.55233
   C        0.11918         5.34480         6.96767
   S        1.31753         4.12578         6.70489
   C        1.58113        -6.08115         3.22446
   C        1.19909        -7.00089         4.38719
   C        0.49212         6.67144         7.53065
   C        1.36436         7.46422         6.55537
   C        4.82804         2.48433         3.21684
   C        5.81617         1.94771         2.41574
   C        6.80629         2.84538         2.03917
   C        6.68898         4.14134         2.52979
  Se        5.13061         4.29808         3.57899
   C        7.65128         5.14723         2.27715
   S        8.95531         4.75265         1.17679
   C        9.75564         6.29095         1.41620
   C        9.03300         7.06243         2.32171
   C        7.82775         6.43648         2.77447
   C        9.44988         8.36242         2.79091
   C        8.50555         9.03796         3.66253
   C        7.26446         8.44570         4.05786
   C        6.87992         7.10742         3.63286
   C        8.69785        10.29417         4.18833
   S        7.35092        10.75439         5.16818
   C        6.52684         9.25997         4.88237
   C       10.93559         6.53418         0.67421
   C       11.38234         5.69067        -0.33689
   C       12.55945         6.05827        -0.97619
  Se       12.12697         7.97785         0.88955
   O       10.53886         8.87129         2.49596
   O        5.80367         6.59883         3.96869
   C        9.86659        11.18764         3.98612
   C        9.73558        12.52636         4.69695
   C        5.17477         9.03156         5.45363
   C        4.09455         9.32121         4.40675
   C       13.14547         7.20610        -0.48165
  Cl        4.52895        -5.07897         4.13570
  Cl       -2.53821         5.83845         6.64817
   C       17.15528        10.16614        -0.47012
   C       16.21006         9.22024        -0.91709
   C       16.42583         8.50743        -2.12286
   C       17.53913         8.69966        -2.93324
   C       18.48778         9.64094        -2.48343
   C       18.28802        10.32783        -1.25860
   C       15.02944         8.79860        -0.26646
   C       14.35531         7.80737        -0.91978
   S       15.15825         7.34331        -2.40643
   C       19.67244        10.06222        -3.12850
   C       20.38681        10.99338        -2.43078
   S       19.60298        11.42090        -0.92214
   C       16.95076        10.94036         0.73741
   C       17.70604         7.95524        -4.16489
   C       17.86983        11.29987         1.68102
   C       17.31021        12.08166         2.71488
   C       15.97984        12.34679         2.56887
   S       15.38744        11.60815         1.12201
   C       16.74243         7.61275        -5.07077
   C       17.25103         6.85303        -6.14527
   C       18.58710         6.58684        -6.06839
   S       19.25051         7.30536        -4.64294
   C       15.05947        13.08734         3.47493
   C       14.06343        12.13828         4.14533
   C       19.45603         5.86843        -7.04014
   C       20.19513         6.85623        -7.94651
   C       21.62617        11.56402        -2.82485
   C       22.46489        12.32831        -2.03798
   C       23.63550        12.73417        -2.66465
   C       23.79064        12.35601        -3.99356
  Se       22.30238        11.34703        -4.55922
   C       24.93162        12.69199        -4.76001
   S       26.28465        13.41207        -3.91298
   C       27.22596        13.60538        -5.37669
   C       26.49159        13.15539        -6.47141
   C       25.21829        12.60387        -6.11967
   C       26.93591        13.25117        -7.84110
   C       26.02086        12.71107        -8.83028
   C       24.77665        12.10023        -8.47562
   C       24.34138        11.99173        -7.09084
   C       26.24554        12.73375       -10.18703
   S       24.92468        12.00867       -11.03297
   C       24.06536        11.67066        -9.56930
   C       28.53621        14.12245        -5.24686
   C       29.13822        14.36907        -4.01749
   C       30.44386        14.84275        -4.04831
  Se       29.72390        14.54864        -6.64573
   O       28.00585        13.77938        -8.17094
   O       23.30412        11.39704        -6.77509
   C       27.42635        13.28787       -10.89663
   C       27.33618        13.16758       -12.41045
   C       22.75954        10.96442        -9.61589
   C       22.94389         9.46514        -9.36200
   C       30.95843        15.02287        -5.31668
  Cl       18.24594        12.64756         4.04540
  Cl       16.25548         6.30801        -7.44027
   C       34.71921        16.59521        -8.17734
   C       34.00819        16.20712        -7.02353
   C       34.63088        16.24422        -5.75049
   C       35.95184        16.63406        -5.56115
   C       36.67678        16.98432        -6.71924
   C       36.04524        16.96496        -7.98908
   C       32.67610        15.74882        -6.93830
   C       32.25288        15.48951        -5.66617
   S       33.51774        15.78145        -4.48865
   C       38.03152        17.37636        -6.81739
   C       38.42891        17.69416        -8.08447
   S       37.12878        17.49697        -9.24466
   C       34.10132        16.61906        -9.48787
   C       36.53662        16.69073        -4.23669
   C       34.65074        16.25779       -10.68519
   C       33.75595        16.41696       -11.76485
   C       32.53393        16.91604       -11.41951
   S       32.47113        17.19270        -9.71455
   C       36.35594        15.81843        -3.20135
   C       37.05692        16.20215        -2.03834
   C       37.75549        17.36810        -2.15691
   S       37.56564        18.01029        -3.75082
   C       31.33563        17.14604       -12.27210
   C       30.30898        16.02612       -12.08232
   C       38.63416        18.04190        -1.16245
   C       40.11116        17.79591        -1.47925
   C       39.71850        18.13027        -8.48691
   C       40.06805        18.55049        -9.75541
   C       41.39383        18.93491        -9.89400
   C       42.19142        18.83391        -8.75950
  Se       41.17647        18.18580        -7.30891
   C       43.56176        19.18823        -8.75761
   S       44.21080        19.86398       -10.23633
   C       45.82435        20.02141        -9.57681
   C       45.84382        19.55649        -8.26735
   C       44.56896        19.09687        -7.80098
   C       47.02800        19.52025        -7.43790
   C       46.83538        18.95704        -6.11145
   C       45.56034        18.50892        -5.64048
   C       44.36196        18.59576        -6.46255
   C       47.84211        18.78457        -5.19109
   S       47.22862        18.05972        -3.74680
   C       45.61639        17.98896        -4.37045
   C       46.81647        20.56916       -10.43201
   C       46.54311        20.98475       -11.72635
   C       47.62275        21.50139       -12.44638
  Se       48.64017        20.84969       -10.04064
   O       48.13224        19.92069        -7.81906
   O       43.24878        18.26676        -6.03515
   C       49.27561        19.14167        -5.34013
   C       50.12686        18.73599        -4.14592
   C       44.51587        17.45939        -3.52524
   C       43.78623        18.60098        -2.81104
   C       48.79926        21.51663       -11.75214
  Cl       34.18455        16.00855       -13.38208
  Cl       37.02031        15.26770        -0.59239
   H       -0.79295        -2.74327         5.93603
   H       -2.74378        -1.56523         7.17991
   H        2.60414         3.42575         4.57548
   H        3.82727        -2.31990         4.99141
   H       -1.97656         3.10019         5.65242
   H        2.47158        -6.47315         2.72857
   H        0.76419        -6.04951         2.50135
   H        2.00943        -7.04859         5.11058
   H        0.99882        -8.00460         4.02165
   H        0.30846        -6.62721         4.88746
   H        1.03789         6.53012         8.46704
   H       -0.42275         7.22649         7.74571
   H        2.28189         6.92069         6.34032
   H        1.62017         8.42919         6.98594
   H        0.83194         7.62744         5.62104
   H        5.81315         0.91454         2.10788
   H        7.63727         2.55694         1.41514
   H       10.82882         4.80692        -0.61221
   H       12.99347         5.48792        -1.78141
   H       10.00195        11.33745         2.91010
   H       10.76420        10.66125         4.32658
   H        8.85099        13.05839         4.35285
   H       10.60761        13.14276         4.49595
   H        9.65299        12.38353         5.77246
   H        5.03078         9.67775         6.32159
   H        5.09097         7.98735         5.76074
   H        4.18532        10.33945         4.03426
   H        3.10987         9.19439         4.84668
   H        4.19315         8.62868         3.57547
   H       14.68215         9.18113         0.67904
   H       20.00904         9.70079        -4.08617
   H       18.89864        10.99174         1.67018
   H       15.71468         7.91708        -5.00282
   H       14.51040        13.83964         2.90296
   H       15.65505        13.59797         4.23386
   H       13.45785        11.63271         3.39592
   H       13.40765        12.69354         4.81119
   H       14.59206        11.38681         4.72707
   H       18.83275         5.20815        -7.64636
   H       20.18421         5.26064        -6.49924
   H       19.48214         7.45407        -8.50959
   H       20.83009         6.31848        -8.64607
   H       20.81549         7.52303        -7.35157
   H       22.23239        12.57231        -1.01402
   H       24.38417        13.32449        -2.16057
   H       28.61494        14.18386        -3.09265
   H       31.01137        15.05785        -3.15729
   H       28.32110        12.77766       -10.52566
   H       27.54195        14.33605       -10.60293
   H       27.24725        12.12475       -12.70796
   H       28.22838        13.58297       -12.87087
   H       26.46940        13.70669       -12.78725
   H       22.29609        11.11818       -10.59236
   H       22.10967        11.37033        -8.83806
   H       23.62539         9.03339       -10.09203
   H       21.98553         8.95894        -9.43413
   H       23.34483         9.30800        -8.36444
   H       32.02629        15.59656        -7.78464
   H       38.71673        17.42432        -5.98713
   H       35.63939        15.85393       -10.79868
   H       35.77839        14.91535        -3.26667
   H       31.65040        17.18573       -13.31663
   H       30.87801        18.10258       -12.01024
   H       30.74266        15.06841       -12.36081
   H       29.43656        16.21019       -12.70426
   H       29.99391        15.97328       -11.04226
   H       38.39966        17.65460        -0.16915
   H       38.43884        19.11655        -1.17160
   H       40.33060        16.73104        -1.45083
   H       40.73688        18.30166        -0.74803
   H       40.35242        18.17399        -2.47046
   H       39.36019        18.58234       -10.56798
   H       41.79491        19.28862       -10.83047
   H       45.55216        20.91207       -12.14534
   H       47.52386        21.85463       -13.45953
   H       49.34520        20.22146        -5.50789
   H       49.65217        18.67564        -6.25630
   H       49.77495        19.22528        -3.23978
   H       51.16254        19.02063        -4.31114
   H       50.08490        17.65944        -3.99306
   H       44.92455        16.76619        -2.78730
   H       43.80145        16.93305        -4.16091
   H       44.48285        19.18799        -2.21594
   H       43.02068        18.19489        -2.15646
   H       43.31071        19.24843        -3.54273
   H       49.73505        21.87644       -12.14091
*
