# ORCA input file
# SCF done       -432.113060012172          0.000798980034
! wb97x-d3 def2-SVP def2/J RIJCOSX Grid4 TightSCF
%maxcore 5000
%tddft
    Mode sTDA
    Ethresh 5.0
    maxcore 5000
end

%pal
  nprocs 6
  end
* xyz -1 2
   C        1.25827         8.01250        -4.32296
   C       -0.05720         8.45571        -4.10096
   C       -0.44343         8.92028        -2.82355
   C        0.41794         8.96495        -1.72986
   C        1.72171         8.47544        -1.93922
   C        2.10685         8.01529        -3.22281
   C       -1.13706         8.50957        -5.03135
   C       -2.26558         9.01755        -4.49781
   S       -2.10508         9.45420        -2.83157
   C        2.77532         8.35119        -0.99929
   C        3.93191         7.85996        -1.53052
   S        3.77219         7.50797        -3.24189
   C        1.69709         7.59232        -5.64037
   C       -0.01441         9.52363        -0.46547
   C        1.47343         8.20675        -6.83913
   C        2.04688         7.52358        -7.93082
   C        2.69785         6.38360        -7.57377
   S        2.62867         6.13847        -5.85904
   C       -1.22877         9.38969         0.14729
   C       -1.33853        10.13444         1.33769
   C       -0.22198        10.85447         1.63191
   S        1.01040        10.60252         0.44136
   C        3.43761         5.42414        -8.44099
   C        4.94711         5.51921        -8.21171
   C        0.03671        11.73052         2.80852
   C        1.00040        11.06287         3.79125
   C        5.16892         7.61307        -0.87258
   C        6.35142         7.22962        -1.47569
   C        7.38282         7.06347        -0.56638
   C        7.01612         7.29950         0.75216
   S        5.33683         7.75514         0.84953
   C        7.90798         7.16244         1.84449
   S        9.57396         6.80386         1.45489
   C       10.04216         6.70504         3.13482
   C        8.94121         6.93808         3.95117
   C        7.74050         7.21522         3.22329
   C        8.98303         6.88146         5.39968
   C        7.71227         7.15795         6.06042
   C        6.51683         7.46660         5.33456
   C        6.48247         7.53391         3.87488
   C        7.53145         7.16426         7.42148
   S        5.88701         7.52121         7.81909
   C        5.43739         7.67991         6.15475
   C       11.40261         6.41733         3.40464
   C       12.37405         6.29094         2.41982
   C       13.63605         5.99050         2.90713
   S       12.09205         6.15246         4.98214
   O       10.00009         6.60322         6.03232
   O        5.47080         7.85393         3.25469
   C        8.51419         6.88024         8.49963
   C        8.69626         5.37220         8.69394
   C        4.04796         8.06891         5.80273
   C        3.91643         9.59438         5.77227
   C       16.37225         4.67376         8.30799
   C       16.04201         4.99576         6.97609
   C       17.04087         4.97457         5.97207
   C       18.37484         4.67206         6.22278
   C       18.71321         4.39633         7.56339
   C       17.70879         4.39522         8.56371
   C       14.77508         5.34909         6.45449
   C       14.76959         5.54364         5.10330
   S       16.36351         5.32666         4.40416
   C       19.98777         4.09578         8.09960
   C       19.97318         3.81956         9.43637
   S       18.36237         3.94803        10.11613
   C       15.35360         4.62184         9.33743
   C       19.33840         4.61052         5.14293
   C       14.10008         4.08320         9.26229
   C       13.36539         4.21303        10.45760
   C       14.04559         4.85773        11.44411
   S       15.63332         5.30658        10.91369
   C       19.43072         5.42474         4.04855
   C       20.44258         5.03884         3.14834
   C       21.11586         3.92149         3.53591
   S       20.51875         3.33205         5.05057
   C       13.60714         5.15473        12.83672
   C       14.36541         4.29719        13.85157
   C       22.26493         3.24914         2.86750
   C       23.58578         3.63170         3.53861
   C       13.65585         5.87151         4.28341
   C       21.07524         3.44862        10.25551
   C       21.02235         2.95812        11.54592
   C       22.27725         2.65686        12.05133
   C       23.31906         2.93280        11.17573
   S       22.70682         3.57995         9.67874
   C       24.68315         2.69347        11.47628
   S       25.02493         1.79462        12.93598
   C       26.75397         1.91349        12.71325
   C       27.03820         2.64002        11.56175
   C       25.86899         3.05899        10.85081
   C       28.38004         2.97656        11.12565
   C       28.44799         3.77532         9.90685
   C       27.27942         4.17531         9.18356
   C       25.93318         3.78676         9.59581
   C       29.61341         4.21735         9.33069
   S       29.27923         5.15557         7.91660
   C       27.56989         4.94168         8.08269
   C       27.57325         1.27684        13.67771
   C       27.08498         0.50289        14.72289
   C       28.06996        -0.02608        15.54308
   S       29.31264         1.34521        13.72950
   O       29.39078         2.64802        11.74400
   O       24.94130         4.04160         8.91654
   C       31.01612         4.01986         9.78065
   C       31.38288         5.00721        10.89218
   C       26.64793         5.51686         7.07013
   C       26.35469         4.49306         5.96994
   C       34.22953         0.32856        16.16132
   C       32.86261        -0.00827        16.22045
   C       32.40133        -0.94910        17.17327
   C       33.23956        -1.60829        18.06653
   C       34.61433        -1.30539        17.97652
   C       35.06974        -0.34648        17.03670
   C       31.81163         0.49111        15.41699
   C       30.57999         0.01075        15.75726
   S       30.66656        -1.12349        17.09197
   C       35.68320        -1.84779        18.72956
   C       36.90067        -1.30811        18.42873
   S       36.78932        -0.10073        17.16236
   C       34.70769         1.34318        15.24383
   C       32.70508        -2.53513        19.04296
   C       34.14326         2.55342        14.95388
   C       34.87432         3.29660        14.00608
   C       35.98995         2.65745        13.56072
   S       36.16955         1.11306        14.32663
   C       31.69038        -3.43674        18.87800
   C       31.37948        -4.14964        20.05180
   C       32.13729        -3.78756        21.12270
   S       33.27667        -2.55812        20.68872
   C       37.01211         3.13717        12.58870
   C       38.32991         3.47128        13.29043
   C       32.12329        -4.34709        22.50309
   C       33.28703        -5.31863        22.71198
   C       29.34018         0.34481        15.14728
   C       38.16020        -1.61104        19.01479
   C       39.35414        -0.95565        18.78129
   C       40.40073        -1.47773        19.52358
   C       40.04183        -2.55186        20.32739
   S       38.34638        -2.91084        20.15002
   C       40.95138        -3.23129        21.17575
   S       42.55721        -2.55538        21.30550
   C       43.09957        -3.81115        22.39119
   C       42.07319        -4.71603        22.62356
   C       40.85620        -4.38471        21.94519
   C       42.20872        -5.90713        23.44510
   C       41.03211        -6.77136        23.46686
   C       39.81021        -6.43424        22.79813
   C       39.65118        -5.18685        22.05168
   C       40.96715        -7.97196        24.12925
   S       39.42092        -8.71242        23.90947
   C       38.84158        -7.39514        22.94298
   C       44.44434        -3.72471        22.84402
   C       45.32261        -2.72590        22.46059
   C       46.58829        -2.84004        23.03825
   C       46.67388        -3.92360        23.86389
   S       45.22205        -4.82447        23.94981
   O       43.23462        -6.18459        24.06012
   O       38.57807        -4.84488        21.55919
   C       42.02093        -8.67384        24.90744
   C       42.97993        -9.41938        23.97476
   C       37.44676        -7.42668        22.43174
   C       36.44719        -7.20003        23.56831
   H       -1.06003         8.16224        -6.04523
   H       -3.21499         9.16268        -4.97513
   H        2.69091         8.60516         0.04161
   H        0.94817         9.14097        -6.93117
   H        1.97559         7.86821        -8.94760
   H       -2.00956         8.75095        -0.22394
   H       -2.22218        10.14110         1.95117
   H        3.20766         5.64548        -9.48547
   H        3.10733         4.40451        -8.22642
   H        5.30028         6.52420        -8.43179
   H        5.47192         4.81643        -8.85413
   H        5.18375         5.28947        -7.17530
   H       -0.91254        11.94061         3.30616
   H        0.46655        12.67843         2.47525
   H        0.58379        10.12124         4.14361
   H        1.17468        11.71249         4.64608
   H        1.95192        10.86055         3.30415
   H        6.44904         7.08319        -2.53715
   H        8.38039         6.76722        -0.84108
   H       12.15106         6.42046         1.37479
   H       14.50877         5.85590         2.29234
   H        8.17057         7.33269         9.43205
   H        9.47764         7.31212         8.22170
   H        7.74589         4.89722         8.92885
   H        9.39192         5.18850         9.50818
   H        9.10077         4.93064         7.78733
   H        3.35545         7.65759         6.54021
   H        3.80613         7.67224         4.81575
   H        4.21149        10.02258         6.72837
   H        2.88740         9.87239         5.56612
   H        4.55120        10.00421         4.99098
   H       13.89109         5.47159         7.05333
   H       20.89745         4.07949         7.52775
   H       13.72967         3.57226         8.39163
   H       12.36338         3.84007        10.57796
   H       18.81600         6.29520         3.90773
   H       20.65838         5.57034         2.23826
   H       12.53525         4.96113        12.91660
   H       13.78200         6.21035        13.06006
   H       14.19388         3.24085        13.65704
   H       14.03359         4.52432        14.86169
   H       15.43323         4.49170        13.78242
   H       22.28643         3.54603         1.81667
   H       22.13802         2.16526         2.91659
   H       23.73920         4.70690         3.47481
   H       24.41892         3.13008         3.05246
   H       23.57011         3.34531         4.58769
   H       20.10117         2.81725        12.08373
   H       22.44624         2.25492        13.03542
   H       26.03172         0.33304        14.86618
   H       27.87829        -0.65084        16.39788
   H       31.69101         4.15310         8.93273
   H       31.12176         3.00561        10.17070
   H       31.24630         6.03297        10.55584
   H       32.42127         4.86618        11.17949
   H       30.75648         4.83092        11.76227
   H       27.09823         6.40959         6.63124
   H       25.70873         5.78559         7.55672
   H       27.27768         4.16349         5.49706
   H       25.71277         4.93659         5.21470
   H       25.84685         3.63182         6.39574
   H       31.95319         1.17411        14.59936
   H       35.57360        -2.61642        19.47248
   H       33.25401         2.91894        15.43551
   H       34.57837         4.27376        13.66662
   H       31.20438        -3.61177        17.93538
   H       30.61339        -4.90339        20.10025
   H       36.62699         4.02533        12.08301
   H       37.19397         2.36605        11.83576
   H       38.17521         4.24911        14.03482
   H       39.06486         3.82003        12.56918
   H       38.72236         2.58871        13.79033
   H       31.17651        -4.86741        22.66383
   H       32.19843        -3.53633        23.23148
   H       33.21948        -6.14181        22.00360
   H       33.26451        -5.72116        23.72191
   H       34.23527        -4.80809        22.55956
   H       39.44608        -0.12629        18.10205
   H       41.40786        -1.09991        19.48595
   H       45.04368        -1.94031        21.77995
   H       47.39459        -2.15275        22.85295
   H       47.52742        -4.24283        24.42948
   H       41.55341        -9.38097        25.59559
   H       42.59105        -7.93739        25.47671
   H       42.43651       -10.12629        23.35083
   H       43.71617        -9.96255        24.56072
   H       43.50058        -8.70991        23.33732
   H       37.25245        -8.39919        21.97155
   H       37.32980        -6.64504        21.68085
   H       36.57373        -7.95340        24.34384
   H       35.43291        -7.25913        23.18471
   H       36.59577        -6.21649        24.00742
*
