# ORCA input file
# SCF done       -200.231361142726          0.000728006993
! wb97x-d3 def2-SVP def2/J RIJCOSX Grid4 TightSCF
%maxcore 5000
%tddft
    Mode sTDA
    Ethresh 5.0
    maxcore 5000
end

%pal
  nprocs 6
  end
* xyz -1 2
   C        2.44050         0.59175         0.17416
   C        2.44309        -0.66192        -0.48476
   C        1.25045        -1.27397        -0.79265
   C        0.07637        -0.62960        -0.40644
   C        0.07282         0.63262         0.23690
   C        1.26464         1.24429         0.54426
   C       -1.28251        -1.04686        -0.51134
   C       -2.13638        -0.09565         0.04013
   C       -1.34713         1.09417         0.52635
   C        3.79908         0.98852         0.34328
   C        4.65496         0.02560        -0.20236
   C        3.86276        -1.12287        -0.77678
   S       -2.10322        -2.41925        -1.11557
   C       -3.63603        -1.71977        -0.63234
   C       -3.46704        -0.46760        -0.04314
   S        4.60969         2.30544         1.06463
   C        6.15385         1.56869         0.66046
   C        5.97929         0.34688        -0.01319
   C       -1.50246         1.33646         2.03939
   C       -1.74954         2.30352        -0.34694
   C       -1.01196         3.60374        -0.05782
   C       -2.89395         1.76131         2.48966
   C        4.03448        -1.24883        -2.30346
   C        4.25161        -2.39610         0.00540
   C        5.43803        -1.61593        -2.76618
   C        3.53526        -3.67792        -0.39807
   C        7.42418         2.06877         0.95725
   C       -4.87692        -2.37064        -0.78923
   C        7.80967         3.21068         1.62133
   C        6.91075         4.21511         2.19253
   C        7.78306         5.23184         2.81849
   C        9.12728         4.86938         2.63254
   C        9.17647         3.61163         1.88334
   C        7.41497         6.37701         3.49540
   C        8.42710         7.17830         3.99892
   C        9.76510         6.82773         3.82005
   C       10.13361         5.67656         3.13901
   O        5.69366         4.23321         2.17053
   C       10.32700         2.96286         1.51485
   C       10.40076         1.75371         0.79183
   C       11.62611         3.42556         1.81499
   N       10.55300         0.77531         0.20908
   N       12.70882         3.74607         2.02059
   F       10.72254         7.61917         4.31709
   F        8.11767         8.29861         4.66329
   C       -8.72874        -3.04580        -0.42563
   C       -9.60346        -2.19626         0.20824
   C       -9.23924        -0.91472         0.81579
   C      -10.47769        -0.36397         1.38989
   C      -11.53795        -1.25456         1.14331
   C      -11.02325        -2.40789         0.40192
   C      -10.66454         0.81998         2.07559
   C      -11.94243         1.12063         2.52626
   C      -12.99411         0.24818         2.28861
   C      -12.80904        -0.94375         1.59847
   O       -8.13308        -0.39754         0.84768
   C      -11.77252        -3.47645        -0.01641
   C      -11.28869        -4.59185        -0.73251
   C      -13.15792        -3.61138         0.21488
   N      -14.28132        -3.78868         0.37150
   N      -10.97811        -5.52968        -1.31827
   S       -6.30094        -1.60525        -0.13518
   C       -7.35309        -2.91673        -0.62976
   C       -6.58405        -3.88431        -1.28177
   C       -5.20212        -3.60067        -1.38150
   S       -7.02453        -5.39411        -1.99313
   C       -5.36202        -5.67073        -2.44616
   C       -4.53329        -4.65199        -2.06139
   F       -3.22303        -4.65565        -2.30870
   C       -5.05743        -6.92186        -3.15117
   O       -5.89468        -7.75440        -3.39791
   O       -3.76794        -7.00719        -3.48246
   C       -3.35516        -8.19978        -4.15085
   C       -3.07009        -9.31908        -3.16005
   H        1.19533        -2.21775        -1.31141
   H        1.32048         2.18929         1.06077
   H       -4.31025         0.10966         0.29020
   H        6.82362        -0.24632        -0.31655
   H       -1.23059         0.40920         2.55085
   H       -0.77947         2.09598         2.33952
   H       -1.57900         2.02625        -1.39076
   H       -2.82223         2.46076        -0.22396
   H        0.04783         3.50863        -0.27595
   H       -1.41510         4.39131        -0.69089
   H       -1.13395         3.90929         0.97753
   H       -3.62981         0.99558         2.26284
   H       -2.89121         1.91616         3.56639
   H       -3.19758         2.69117         2.01706
   H        3.32560        -1.99334        -2.66806
   H        3.75417        -0.28923        -2.74626
   H        5.32772        -2.53745        -0.10771
   H        4.05909        -2.20273         1.06420
   H        5.75117        -2.57511        -2.36357
   H        5.45350        -1.68461        -3.85164
   H        6.15635        -0.85786        -2.46757
   H        2.47402        -3.62170        -0.17472
   H        3.66414        -3.89086        -1.45558
   H        3.95117        -4.51047         0.16541
   H        8.22177         1.42714         0.60286
   H        6.37873         6.64266         3.63078
   H       11.18192         5.45293         3.02997
   H       -9.12827        -3.96684        -0.83393
   H       -9.83089         1.48307         2.24864
   H      -12.12032         2.03867         3.06568
   H      -13.98184         0.49657         2.64683
   H      -13.64650        -1.60048         1.43045
   H       -4.14048        -8.50349        -4.85092
   H       -2.45376        -7.91568        -4.69725
   H       -3.98300        -9.59503        -2.63773
   H       -2.69355       -10.18794        -3.69192
   H       -2.32843        -8.99659        -2.43301
*
