# ORCA input file
# SCF done       -173.935612403190          0.000883017934
! wb97x-d3 def2-SVP def2/J RIJCOSX Grid4 TightSCF
%maxcore 5000
%tddft
    Mode sTDA
    Ethresh 5.0
    maxcore 5000
end

%pal
  nprocs 6
  end
* xyz -1 2
   C       -0.13505         0.31433        -0.40913
   O       -0.34010         1.50773        -0.52981
   C       -0.85505        -0.60532         0.49632
   C       -1.87353        -0.31353         1.38148
   C       -2.38920        -1.35710         2.13302
   C       -1.88796        -2.65111         1.98907
   C       -0.86516        -2.94307         1.09842
   C       -0.34290        -1.90459         0.34334
   C        0.72183        -1.87716        -0.66160
   C        1.43182        -2.96993        -1.08491
   C        2.44956        -2.96562        -2.06239
   N        3.28573        -3.05169        -2.84502
   C        1.23313        -4.27994        -0.59766
   N        1.12249        -5.36657        -0.24545
   C        0.85798        -0.50481        -1.10932
   C        1.78132        -0.03960        -2.01280
   C        2.00036         1.25700        -2.49713
   C        3.03945         1.55924        -3.37626
   C        3.12280         2.89455        -3.75066
   C        2.11048         3.64876        -3.16394
   S        1.09551         2.70039        -2.12406
   C        1.83605         5.05653        -3.23098
   C       -0.24703        12.16992        -1.00698
   C       -0.10381        13.15409        -2.00469
   C       -0.66398        14.35603        -1.61806
   C       -1.25827        14.35589        -0.35216
   S       -1.07851        12.79054         0.38768
   C       -1.89776        15.47794         0.17893
   C       -2.56698        15.63925         1.37180
   C       -3.23084        16.84738         1.81239
   C       -3.26620        18.06441         1.18081
   C       -3.94164        19.19662         1.68355
   N       -4.46629        20.15489         2.03542
   C       -2.64081        18.37817        -0.04386
   N       -2.16492        18.71667        -1.03343
   C       -3.87432        16.55020         3.09463
   C       -4.65329        17.33032         3.93408
   C       -5.13299        16.75328         5.10133
   C       -4.84847        15.42997         5.43633
   C       -4.06982        14.64318         4.60259
   C       -3.59485        15.21795         3.44115
   C       -2.75911        14.60429         2.38721
   O       -2.33076        13.46342         2.38968
   F       -3.37621        -1.12165         3.00539
   F       -5.33292        14.91372         6.57298
   S        1.52098         5.85511        -1.71096
   C        1.20600         7.36051        -2.51471
   C        1.32640         7.21636        -3.87727
   C        1.67104         5.92167        -4.29670
   C        0.84211         8.51948        -1.77931
   C        0.60362         8.61671        -0.42654
   C        0.20949         9.88679         0.00308
   C        0.15468        10.81041        -1.04461
   S        0.60841        10.04858        -2.55599
   C        0.58946        12.93494        -3.31377
   C        0.83753        14.21150        -4.10877
   C        4.23712         3.42387        -4.60016
   C        4.22048         2.81911        -6.00499
   C        1.69372         5.54234        -5.74611
   C        0.62514         4.49621        -6.06489
   C       -0.10239        10.21334         1.42783
   C        0.26519         9.11370         2.41713
   F       -2.40336        -3.63951         2.72797
   F       -5.88929        17.49009         5.92333
   H       -2.25689         0.68861         1.48859
   H       -0.51484        -3.95950         1.02730
   H        2.46969        -0.76679        -2.42606
   H        3.73411         0.80689        -3.70784
   H       -0.66496        15.24313        -2.22475
   H       -1.86520        16.33710        -0.47972
   H       -4.90366        18.35680         3.72317
   H       -3.84790        13.61900         4.85638
   H        1.15005         8.03180        -4.55719
   H        0.70553         7.76475         0.22002
   H        1.54748        12.44153        -3.12536
   H       -0.01045        12.24857        -3.91988
   H        1.41300        14.92474        -3.52368
   H        1.40025        13.97484        -5.00846
   H       -0.09907        14.67456        -4.40836
   H        4.17898         4.51146        -4.64736
   H        5.18496         3.16567        -4.11972
   H        3.26650         2.99720        -6.49497
   H        5.01022         3.25680        -6.61074
   H        4.38015         1.74512        -5.95881
   H        1.50538         6.44053        -6.33691
   H        2.67223         5.15845        -6.03222
   H       -0.36029         4.86665        -5.79198
   H        0.62656         4.27124        -7.12873
   H        0.80962         3.57681        -5.51441
   H        0.42375        11.13236         1.70302
   H       -1.17152        10.43011         1.51668
   H        1.32122         8.86321         2.34527
   H        0.06377         9.45902         3.42789
   H       -0.32361         8.21647         2.24358
*
