# ORCA input file
# SCF done       -233.649197658249          0.000615723486
! wb97x-d3 def2-SVP def2/J RIJCOSX Grid4 TightSCF
%maxcore 5000
%tddft
    Mode sTDA
    Ethresh 5.0
    maxcore 5000
end

%pal
  nprocs 6
  end
* xyz -1 2
   C        7.57255         2.65481        -1.25759
   O        7.32958         3.81882        -1.01503
   C        8.92634         2.05612        -1.27456
   C       10.13431         2.68467        -1.04611
   C       11.28332         1.91517        -1.12487
   C       11.20670         0.55513        -1.42605
   C        9.99228        -0.07525        -1.65226
   C        8.83751         0.68829        -1.57362
   C        7.42722         0.33852        -1.74565
   C        6.96328        -0.93460        -1.95370
   C        5.61260        -1.33414        -2.04937
   N        4.55011        -1.76388        -2.12959
   C        7.79638        -2.06798        -2.07555
   N        8.41045        -3.03120        -2.18694
   C        6.64799         1.55628        -1.59984
   C        5.29304         1.61472        -1.81922
   C        4.36531         2.65975        -1.69960
   C        4.47100         3.97522        -1.26332
   C        3.25081         4.62745        -1.28449
   C        2.17189         3.83374        -1.73815
   S        2.69686         2.25302        -2.14480
   C        0.96763         4.52869        -1.73740
   C       -0.47871         4.24308        -2.03817
   C       -0.75154         3.93804        -3.49927
   C       -1.92864         3.29767        -3.86530
   C       -2.20460         3.04588        -5.19536
   C       -1.31655         3.42609        -6.19354
   C       -1.63713         3.18517        -7.64016
   C       -2.41583         4.36853        -8.21858
   C       -0.14806         4.07699        -5.82267
   C        0.13154         4.33453        -4.49318
   C       -0.90792         3.10158        -1.13257
   C       -1.54434         3.32112         0.07779
   C       -1.86789         2.25915         0.90717
   C       -1.55135         0.95566         0.55594
   C       -1.87650        -0.24008         1.41191
   C       -2.50440         0.07030         2.76434
   C       -0.89798         0.74567        -0.65639
   C       -0.57911         1.79788        -1.48860
   C       -1.11007         5.58077        -1.69395
   C       -0.13279         6.50406        -1.25020
   C        1.12502         5.82692        -1.27594
   S        2.74957         6.23924        -0.85008
   C       -0.46353         7.80295        -0.87155
   C       -1.78910         8.15970        -0.94406
   C       -2.42601         9.48314        -0.55996
   C       -2.07771         9.80158         0.88104
   C       -0.91521        10.50060         1.17872
   C       -0.57390        10.76544         2.49132
   C       -1.37787        10.33510         3.53867
   C       -1.03801        10.67321         4.96129
   C       -1.72086        11.97884         5.37408
   C       -2.53225         9.62605         3.23532
   C       -2.87688         9.35610         1.92423
   C       -2.07695        10.63144        -1.49237
   C       -2.45732        11.92095        -1.13893
   C       -2.21363        12.98005        -1.99060
   C       -1.58952        12.78141        -3.21626
   C       -1.28742        13.94200        -4.11972
   C        0.06632        14.55934        -3.76293
   C       -1.21573        11.49104        -3.56400
   C       -1.46172        10.42407        -2.71775
   C       -3.88119         9.16938        -0.77827
   C       -4.03417         7.89027        -1.28639
   C       -2.76781         7.23483        -1.38326
   C       -2.43514         5.94018        -1.77350
   S       -5.67753         7.44670        -1.60693
   C       -6.18508         9.01395        -1.03201
   C       -5.10157         9.82427        -0.62923
   S       -5.62296        11.35034        -0.03025
   C       -7.30114        10.90409        -0.31926
   C       -7.41322         9.62200        -0.86402
   C       -8.43323        11.68609        -0.04312
   C       -8.54047        12.93192         0.51883
   C       -9.77936        13.63862         0.78624
   C      -11.05385        13.23048         0.49101
   C      -12.21426        13.97876         0.78347
   N      -13.20052        14.52872         0.99016
   C      -11.41130        12.02300        -0.14510
   N      -11.79168        11.06754        -0.65744
   C       -9.43055        14.90160         1.43823
   C      -10.21469        15.93712         1.92184
   C       -9.58527        17.02941         2.50560
   C       -8.20391        17.10106         2.61076
   C       -7.40847        16.07033         2.13038
   C       -8.03154        14.98283         1.55071
   C       -7.42356        13.76954         0.97693
   O       -6.23231        13.52593         0.90437
   F       12.47786         2.48094        -0.91181
   F       12.33248        -0.16422        -1.50062
   H       10.18586         3.73666        -0.81490
   H        9.99089        -1.12770        -1.88235
   H        4.83454         0.69096        -2.15210
   H        5.40098         4.41258        -0.95070
   H       -2.62525         2.97984        -3.10318
   H       -3.12190         2.54084        -5.46223
   H       -0.71369         3.05061        -8.20679
   H       -2.23534         2.27748        -7.74055
   H       -1.83065         5.28202        -8.13874
   H       -2.64833         4.19504        -9.26656
   H       -3.34697         4.51109        -7.67470
   H        0.55584         4.38439        -6.58290
   H        1.04716         4.84531        -4.23170
   H       -1.79465         4.32676         0.38359
   H       -2.36953         2.46858         1.83847
   H       -2.55213        -0.88902         0.84568
   H       -0.95329        -0.80603         1.56817
   H       -3.46197         0.57182         2.64400
   H       -2.67421        -0.85512         3.31014
   H       -1.84831         0.70049         3.36062
   H       -0.63349        -0.26034        -0.94867
   H       -0.07604         1.60877        -2.42592
   H        0.29483         8.49073        -0.53082
   H       -0.28095        10.85231         0.37779
   H        0.33158        11.31529         2.70530
   H       -1.36899         9.86953         5.62240
   H        0.04298        10.78190         5.06932
   H       -2.80068        11.88669         5.28073
   H       -1.48016        12.22511         6.40565
   H       -1.39199        12.79541         4.73518
   H       -3.16998         9.27803         4.03542
   H       -3.77684         8.79626         1.71457
   H       -2.94574        12.09562        -0.19153
   H       -2.52013        13.97465        -1.70116
   H       -1.26801        13.60792        -5.15899
   H       -2.06600        14.70072        -4.01858
   H        0.85846        13.82167        -3.87061
   H        0.28460        15.40138        -4.41557
   H        0.06243        14.90934        -2.73312
   H       -0.73178        11.31315        -4.51392
   H       -1.17199         9.42752        -3.01812
   H       -3.19478         5.25067        -2.10742
   H       -8.36067         9.17668        -1.10923
   H       -9.35911        11.19398        -0.31578
   H      -11.28979        15.91124         1.85640
   H      -10.18971        17.83923         2.88561
   H       -7.74657        17.96432         3.07021
   H       -6.33215        16.10239         2.20190
*
