# ORCA input file
# SCF done       -300.703730770849          0.000840782523
! wb97x-d3 def2-SVP def2/J RIJCOSX Grid4 TightSCF
%maxcore 5000
%tddft
    Mode sTDA
    Ethresh 5.0
    maxcore 5000
end

%pal
  nprocs 6
  end
* xyz -1 2
   C        1.62841        -3.05386         0.07836
   C        1.72912        -2.39626         1.32795
   C        0.78597        -1.46270         1.74926
   C       -0.29135        -1.24521         0.92459
   C       -0.43375        -1.95920        -0.29059
   C        0.54181        -2.84787        -0.73865
   C        2.79106        -4.01409        -0.12150
   C        3.45014        -3.94922         1.23416
   C        2.85146        -2.96060         2.00255
   C        4.46294        -4.62090         1.90307
   C        4.62883        -4.17990         3.21050
   S        3.53272        -2.85053         3.56672
   C       -1.50115        -0.36315         1.18474
   C       -2.38180        -0.74787         0.02456
   C       -1.71505        -1.62035        -0.82563
   C       -3.64404        -0.39775        -0.43172
   C       -3.95475        -1.01688        -1.63280
   S       -2.66523        -2.06650        -2.18213
   C        5.52824        -4.72435         4.17848
   C       -5.17659        -0.92860        -2.36676
   C       -2.05385        -0.69579         2.55415
   C       -1.23926         1.12452         1.02310
   C        2.26028        -5.38196        -0.49632
   C        3.80823        -3.51316        -1.13528
   C        5.40250        -4.56830         5.57576
   C        6.34034        -5.15848         6.47185
   C        7.44685        -5.90692         6.07754
   C        7.54963        -6.12549         4.68471
   C        6.61566        -5.53835         3.75425
   C       -6.02574         0.18947        -2.33602
   C       -7.32602         0.17162        -2.93507
   C       -7.84617        -0.94144        -3.60296
   C       -6.96279        -2.05281        -3.68523
   C       -5.64276        -2.03431        -3.11609
   N        8.43689        -6.90989         4.07664
   S        8.17772        -6.85999         2.49558
   N        6.90647        -5.88415         2.49819
   N       -7.22159        -3.20988        -4.29261
   S       -5.93925        -4.17094        -4.16089
   N       -4.99398        -3.17919        -3.32521
   C        8.33093        -6.49957         7.03234
   C        9.64425        -6.76706         6.84482
   C       -9.16133        -1.13383        -4.12322
   C      -10.03333        -0.23791        -4.65216
   C       -9.78240         1.12280        -5.09472
   N      -10.94561         1.71406        -5.56932
   C      -12.05079         0.92795        -5.58973
   S      -11.69093        -0.68841        -5.01963
   C       10.52681        -6.24521         5.80122
   N       11.78083        -6.84266         5.88946
   C       11.97213        -7.69585         6.92683
   S       10.55258        -7.78390         7.94850
   C       12.75941        -6.54662         4.86042
   O       10.28307        -5.36676         5.00642
   C       13.09085        -8.42625         7.23905
   C       13.08735        -9.24387         8.38914
   C       14.29183        -8.47545         6.51115
   C        2.04959        -5.70614        -1.83067
   C        1.52345        -6.93544        -2.17915
   C        1.18802        -7.86959        -1.20774
   C        1.39076        -7.53642         0.12469
   C        1.91400        -6.30663         0.47887
   C        3.73865        -2.24451        -1.69063
   C        4.70466        -1.81909        -2.58538
   C        5.76290        -2.64272        -2.94176
   C        5.83423        -3.90803        -2.37173
   C        4.87198        -4.33884        -1.48008
   C       -1.55318        -0.04868         3.67738
   C       -1.99439        -0.39392         4.94022
   C       -2.94290        -1.39340         5.11598
   C       -3.44148        -2.03477         3.99013
   C       -2.99888        -1.69717         2.72397
   C       -2.23666         2.02128         1.38941
   C       -2.08106         3.37460         1.16596
   C       -0.92671         3.86959         0.57176
   C        0.06940         2.97094         0.21604
   C       -0.08348         1.61274         0.43327
   O       -8.70602         1.68618        -5.11293
   C      -10.90564         3.11459        -5.94772
   C      -13.32154         1.24625        -5.99985
   C      -14.32797         0.25869        -5.96205
   C      -13.76550         2.49519        -6.46570
   N       13.09989        -9.91554         9.31884
   N       15.29561        -8.57166         5.96035
   N      -14.19926         3.48798        -6.84785
   N      -15.15503        -0.53564        -5.93669
   C       -3.45064        -1.73405         6.48736
   C       -0.79064         5.33306         0.26572
   C        6.83111        -2.15969        -3.87969
   C        0.66718        -9.22435        -1.59152
   C        1.82458       -10.20845        -1.77333
   C        7.94981        -1.46318        -3.10217
   C       -4.63545        -0.83866         6.85550
   C       -1.31504         5.62945        -1.14125
   C      -11.32695         4.01124        -4.78956
   C       12.71517        -7.58582         3.74632
   C        4.38106        -3.89995         6.30379
   C        4.54191        -3.95343         7.65217
   S        5.96660        -4.82422         8.13573
   C        3.66219        -3.39408         8.68367
   O        3.81194        -3.56262         9.86811
   O        2.68094        -2.66758         8.13090
   C        1.71726        -2.08959         9.01245
   C        0.47809        -2.96794         9.11066
   C       -5.74979         1.44473        -1.73326
   C       -6.80388         2.30174        -1.77926
   S       -8.17899         1.64136        -2.61104
   C       -6.88724         3.66924        -1.25966
   O       -5.72958         4.04508        -0.69664
   O       -7.87100         4.36324        -1.33315
   C       -5.68830         5.35366        -0.12519
   C       -6.23259         5.35515         1.29606
   H        0.88837        -0.96379         2.70054
   H        0.42331        -3.37385        -1.67339
   H        5.04481        -5.42647         1.49866
   H       -4.33859         0.21611         0.10998
   H        7.88287        -6.77686         7.97983
   H       -9.48182        -2.16937        -4.10817
   H       12.48413        -5.56534         4.46329
   H       13.75295        -6.49088         5.30708
   H        2.30876        -4.99550        -2.60238
   H        1.36922        -7.17225        -3.22229
   H        1.13182        -8.24678         0.89704
   H        2.05507        -6.06684         1.52292
   H        2.92542        -1.58261        -1.43137
   H        4.63082        -0.83001        -3.01479
   H        6.65214        -4.56448        -2.63206
   H        4.93812        -5.32888        -1.05376
   H       -0.81919         0.73594         3.56052
   H       -1.59313         0.11780         5.80360
   H       -4.18114        -2.81441         4.10470
   H       -3.39140        -2.21755         1.86216
   H       -3.13864         1.65315         1.85688
   H       -2.86843         4.05685         1.45278
   H        0.97718         3.33627        -0.24273
   H        0.70180         0.93150         0.13968
   H       -9.86571         3.32059        -6.21569
   H      -11.54273         3.27209        -6.81902
   H       -3.76608        -2.77878         6.51723
   H       -2.65447        -1.59569         7.22198
   H       -1.35672         5.91846         0.99328
   H        0.25761         5.63152         0.32858
   H        7.24871        -3.00388        -4.43195
   H        6.40304        -1.45853        -4.59898
   H       -0.00354        -9.59747        -0.81501
   H        0.10495        -9.15424        -2.52472
   H        2.39014       -10.30213        -0.84895
   H        1.44942       -11.19026        -2.05217
   H        2.49865        -9.85953        -2.55245
   H        8.39723        -2.14939        -2.38667
   H        8.72448        -1.11403        -3.78077
   H        7.55563        -0.60935        -2.55555
   H       -5.44489        -0.97002         6.14094
   H       -5.00498        -1.08492         7.84800
   H       -4.33696         0.20729         6.84529
   H       -2.35408         5.31932        -1.23266
   H       -1.24783         6.69304        -1.35775
   H       -0.73385         5.08653        -1.88314
   H      -10.66414         3.86507        -3.93926
   H      -11.27101         5.04974        -5.10131
   H      -12.34992         3.80102        -4.48592
   H       11.71316        -7.63643         3.32532
   H       13.41349        -7.30541         2.96360
   H       12.99537        -8.56850         4.11820
   H        3.53049        -3.40934         5.87320
   H        2.17346        -1.95692         9.99864
   H        1.47452        -1.11622         8.57933
   H        0.73673        -3.93111         9.54422
   H       -0.26068        -2.48522         9.74414
   H        0.05216        -3.12909         8.12283
   H       -4.79866         1.72434        -1.32143
   H       -4.63366         5.63710        -0.14503
   H       -6.26981         6.03527        -0.75419
   H       -5.68979         4.63975         1.90987
   H       -6.12603         6.34692         1.72590
   H       -7.28601         5.08626         1.28994
*
