# ORCA input file
# SCF done       -291.979560644529          0.000801291245
! wb97x-d3 def2-SVP def2/J RIJCOSX Grid4 TightSCF
%maxcore 5000
%tddft
    Mode sTDA
    Ethresh 5.0
    maxcore 5000
end

%pal
  nprocs 6
  end
* xyz -1 2
   C       -0.04623        -0.90181        -1.22841
   C        0.40269        -1.96869        -1.95370
   C        0.62483        -2.13917        -3.37110
   C        1.50526        -3.29574        -3.53306
   C        1.61482        -3.95341        -2.29481
   C        0.85869        -3.19928        -1.26521
   O        0.69171        -3.49640        -0.10520
   C       -0.08349        -1.53756        -4.37914
   C        0.11272        -1.80827        -5.74759
   N        0.25147        -1.97984        -6.87394
   C       -1.15221        -0.64757        -4.14352
   N       -2.06053         0.03671        -3.98613
   C        2.15691        -3.79492        -4.64832
   C        2.90906        -4.95036        -4.49629
   C        3.00372        -5.60532        -3.26802
   C        2.35340        -5.11070        -2.14835
   F        3.56203        -5.44343        -5.55491
   F        3.73511        -6.72238        -3.16928
   C        3.00906        15.92482        -9.05523
   C        3.88169        15.95446       -10.10796
   C        4.31854        14.93112       -11.02853
   C        5.62402        15.34621       -11.54200
   C        5.85083        16.68127       -11.16253
   C        4.72332        17.15551       -10.32207
   C        6.56330        14.66687       -12.29924
   C        7.71943        15.34453       -12.65797
   C        7.93411        16.67213       -12.28737
   C        6.99528        17.35874       -11.53303
   O        4.55977        18.26137        -9.86186
   C        3.55025        13.91847       -11.54212
   C        4.01480        12.96883       -12.47265
   C        2.17556        13.77283       -11.25548
   N        1.04378        13.66024       -11.10160
   N        4.35378        12.15234       -13.20476
   F        9.06364        17.28803       -12.65922
   F        8.65281        14.70293       -13.37122
   C       -0.11007         0.45394        -1.60300
   S        0.88238         1.12734        -2.89276
   C        0.21507         2.67547        -2.61057
   C       -0.72029         2.67724        -1.58043
   C       -0.87852         1.43681        -0.98706
   C        0.36578         3.97880        -3.16624
   C       -0.51090         4.83236        -2.45318
   C       -1.27574         4.06437        -1.38886
   C       -2.75816         4.16230        -1.70988
   C       -0.97101         4.50499         0.03115
   C        1.17725         4.44538        -4.19886
   C        1.09898         5.78254        -4.50298
   C        0.21540         6.63292        -3.79797
   C       -0.60332         6.16632        -2.77183
   C        1.88353         6.55941        -5.55428
   C        1.33175         7.95416        -5.35989
   C        0.38823         7.94161        -4.33316
   C        3.36686         6.57009        -5.21993
   C        1.55733         5.94535        -6.90163
   C        1.52104         9.23805        -5.86303
   C        0.69920        10.16497        -5.20038
   S       -0.29272         9.48265        -3.96700
   C        2.30577         9.93217        -6.95760
   C        1.84626        11.35864        -6.75993
   C        0.90309        11.45299        -5.73747
   C        2.10173        12.59293        -7.33164
   C        1.33422        13.63086        -6.76018
   S        0.30122        13.05454        -5.47781
   S        3.12565        13.18254        -8.57619
   C        2.49926        14.81678        -8.35749
   C        1.56574        14.87220        -7.32796
   C        2.20664         4.78650        -7.31415
   C       -1.77743         4.05317         1.06919
   C       -1.50113         4.40291         2.37637
   C       -0.41185         5.20880         2.68405
   C        0.39939         5.64350         1.64543
   C        0.12872         5.29400         0.33445
   C       -3.38042         3.22497        -2.52295
   C       -4.72149         3.35431        -2.83475
   C       -5.46916         4.42185        -2.35665
   C       -4.83694         5.36228        -1.55348
   C       -3.49765         5.23885        -1.23639
   C        4.34269         6.61683        -6.20526
   C        5.68254         6.65204        -5.86860
   C        6.08771         6.65373        -4.54050
   C        5.10873         6.62483        -3.55704
   C        3.76797         6.58876        -3.88949
   C        0.54183         6.45387        -7.69690
   C        0.21000         5.84222        -8.89291
   C        0.86490         4.69540        -9.31551
   C        1.86442         4.17357        -8.50239
   C        3.81008         9.95226        -6.77803
   C        4.39634         9.70648        -5.54674
   C        5.76592         9.82671        -5.38654
   C        6.57918        10.21191        -6.44181
   C        5.98043        10.49201        -7.66496
   C        4.61654        10.36956        -7.83185
   C        1.84768         9.41805        -8.31654
   C        0.64017         9.86093        -8.84384
   C        0.21864         9.43932       -10.08887
   C        0.98485         8.55873       -10.84144
   C        2.17129         8.09044       -10.29531
   C        2.59546         8.50708        -9.04692
   C       -0.09084         5.55591         4.10893
   C        0.82794         4.49744         4.72280
   C       -6.93588         4.53007        -2.65865
   C       -7.75494         3.78869        -1.60001
   C        7.54495         6.65234        -4.17925
   C        8.14044         5.25150        -4.32931
   C        0.51991         4.02804       -10.61605
   C        1.65817         4.15460       -11.62905
   C        8.06932        10.32453        -6.28551
   C        8.80269         9.27907        -7.12720
   C        0.56137         8.18402       -12.23100
   C        1.04984         9.23643       -13.22969
   H       -0.31908        -1.12058        -0.20034
   H        2.11249        -3.31950        -5.61474
   H        2.42660        -5.61707        -1.19917
   H        2.77143        16.89413        -8.62799
   H        6.43780        13.64063       -12.60462
   H        7.16155        18.38486       -11.24630
   H       -1.54526         1.21647        -0.17344
   H        1.83872         3.77371        -4.72254
   H       -1.26932         6.83480        -2.24858
   H        1.07767        15.78337        -7.03373
   H        2.99143         4.36225        -6.70465
   H       -2.63522         3.43508         0.84699
   H       -2.14272         4.04838         3.17036
   H        1.25520         6.26680         1.86279
   H        0.77800         5.64313        -0.45520
   H       -2.82651         2.38578        -2.91650
   H       -5.18999         2.61189        -3.46414
   H       -5.39864         6.20345        -1.17243
   H       -3.02706         5.97806        -0.60381
   H        4.05465         6.61560        -7.24471
   H        6.42313         6.68706        -6.65457
   H        5.39725         6.63307        -2.51530
   H        3.02645         6.57273        -3.10316
   H        0.00105         7.33607        -7.38869
   H       -0.57710         6.26486        -9.50007
   H        2.37585         3.26898        -8.79859
   H        3.78658         9.41578        -4.70442
   H        6.20234         9.62287        -4.41966
   H        6.58709        10.82111        -8.49608
   H        4.17333        10.59866        -8.79018
   H        0.02371        10.55018        -8.28478
   H       -0.71531         9.80948       -10.48603
   H        2.78064         7.39391       -10.85285
   H        3.52752         8.13574        -8.65062
   H        0.40298         6.52881         4.15096
   H       -1.01191         5.61431         4.69222
   H        1.75880         4.43390         4.16356
   H        1.05911         4.74724         5.75555
   H        0.34883         3.52120         4.70028
   H       -7.23486         5.58015        -2.67486
   H       -7.14365         4.09945        -3.64009
   H       -7.57229         4.21234        -0.61479
   H       -8.81749         3.86393        -1.81904
   H       -7.47842         2.73701        -1.57692
   H        8.08617         7.34231        -4.82918
   H        7.67057         6.98801        -3.14786
   H        8.03608         4.90208        -5.35394
   H        9.19673         5.25802        -4.07084
   H        7.62708         4.55014        -3.67530
   H        0.31965         2.96851       -10.43742
   H       -0.38403         4.47871       -11.02962
   H        2.56159         3.67927       -11.25494
   H        1.38314         3.68162       -12.56886
   H        1.87846         5.20237       -11.81901
   H        8.39263        11.32049        -6.59950
   H        8.33736        10.19911        -5.23464
   H        8.59379         9.42012        -8.18458
   H        9.87673         9.35573        -6.97457
   H        8.48453         8.27643        -6.85072
   H        0.97471         7.21057       -12.50099
   H       -0.52782         8.11905       -12.28178
   H        2.13500         9.30790       -13.20752
   H        0.73933         8.97525       -14.23865
   H        0.64127        10.21361       -12.98147
*
