# ORCA input file
# SCF done       -291.971797914329          0.000408766619
! wb97x-d3 def2-SVP def2/J RIJCOSX Grid4 TightSCF
%maxcore 5000
%tddft
    Mode sTDA
    Ethresh 5.0
    maxcore 5000
end

%pal
  nprocs 6
  end
* xyz -1 2
   C       -1.02035         3.41617         4.97538
   C       -2.02245         3.75726         5.83985
   C       -3.13601         4.66934         5.72580
   C       -4.11668         4.28200         6.74010
   C       -3.52348         3.34182         7.60125
   C       -2.15289         3.03267         7.12653
   O       -1.33706         2.30668         7.64576
   C       -3.14941         5.84674         5.02420
   C       -4.23362         6.74610         5.01808
   N       -5.09892         7.49837         4.96510
   C       -2.02883         6.33021         4.31638
   N       -1.11820         6.77940         3.78121
   C       -5.41664         4.70580         6.95906
   C       -6.09753         4.17399         8.04430
   C       -5.49924         3.25070         8.90221
   C       -4.19835         2.82291         8.68825
   F       -7.36035         4.55525         8.26819
   F       -6.19177         2.76923         9.94214
   C       -0.93048         3.58933         3.58281
   S       -2.31966         3.95772         2.56605
   C       -1.34393         3.83625         1.16910
   C       -0.01951         3.52304         1.46253
   C        0.21346         3.37076         2.81741
   C       -1.53894         3.95980        -0.23727
   C       -0.28137         3.73513        -0.84846
   C        0.79360         3.47704         0.19429
   C        1.82176         4.59250         0.29576
   C        1.43808         2.13479        -0.08973
   C       -2.68327         4.23945        -0.98224
   C       -2.54885         4.27239        -2.34896
   C       -1.30146         3.99995        -2.96269
   C       -0.15439         3.73825        -2.21764
   C       -3.61817         4.54775        -3.39182
   C       -2.84193         4.31288        -4.65931
   C       -1.51501         4.03676        -4.37417
   C       -4.77981         3.59346        -3.19502
   C       -4.08264         5.99607        -3.41142
   C       -3.08771         4.30715        -6.02949
   C       -1.92899         4.00668        -6.77886
   S       -0.53318         3.76222        -5.77433
   C       -3.39608         6.99854        -2.74257
   C        2.49715         2.05042        -0.98542
   C        3.06647         0.82789        -1.28509
   C        2.59262        -0.34193        -0.70477
   C        1.52826        -0.25306         0.18178
   C        0.95191         0.96777         0.48194
   C        1.59372         5.84906        -0.24447
   C        2.52230         6.86060        -0.07678
   C        3.69329         6.64618         0.63622
   C        3.91150         5.38770         1.18301
   C        2.98753         4.37449         1.02005
   C       -5.79755         3.91556        -2.30594
   C       -6.84779         3.04261        -2.09711
   C       -6.90967         1.82663        -2.76582
   C       -5.88447         1.50533        -3.64469
   C       -4.82784         2.37267        -3.85249
   C       -5.19168         6.33691        -4.17651
   C       -5.61329         7.64980        -4.25401
   C       -4.93751         8.65700        -3.57615
   C       -3.82566         8.31121        -2.82076
   C        3.25094        -1.66067        -0.98963
   C        4.40973        -1.89797        -0.01900
   C        4.67185         7.76105         0.86513
   C        4.34463         8.49217         2.16889
   C       -8.08234         0.90783        -2.58256
   C       -9.18086         1.23933        -3.59497
   C       -5.42711        10.07536        -3.61812
   C       -6.42482        10.32819        -2.48582
   C       -4.37465         3.64510       -13.57681
   C       -5.63929         3.52176       -14.08428
   C       -6.88019         3.08331       -13.49181
   C       -7.96285         3.56127       -14.35246
   C       -7.40346         4.05344       -15.54486
   C       -5.92434         3.97687       -15.46483
   C       -9.33620         3.55874       -14.17525
   C      -10.12326         4.05205       -15.20540
   C       -9.56283         4.52689       -16.39144
   C       -8.18901         4.53243       -16.57435
   O       -5.12217         4.26853       -16.32203
   C       -7.01908         2.14667       -12.49965
   C       -8.26133         1.68565       -12.02201
   C       -5.92517         1.46649       -11.92491
   N       -5.06408         0.85279       -11.47785
   N       -9.24871         1.29398       -11.58693
   F      -10.36251         4.98586       -17.36278
   F      -11.45262         4.07454       -15.05329
   S       -4.49631         4.50853        -7.02350
   C       -3.53141         4.17022        -8.42175
   C       -2.18627         3.92314        -8.14145
   C       -3.73604         4.03778        -9.80917
   C       -2.51547         3.73747       -10.43046
   C       -1.41254         3.62793        -9.40295
   C       -0.31138         4.66342        -9.53908
   C       -0.85860         2.21392        -9.45996
   S       -5.04005         4.10641       -10.91044
   C       -3.95149         3.71099       -12.23915
   C       -2.63630         3.57407       -11.79546
   C       -0.46171         5.79349       -10.32859
   C        0.55155         6.73257       -10.40268
   C        1.73023         6.57099        -9.68775
   C        1.86676         5.44467        -8.88563
   C        0.86055         4.50186        -8.81016
   C        0.10734         1.90118       -10.40781
   C        0.59982         0.61451       -10.50597
   C        0.13585        -0.39274        -9.66916
   C       -0.83681        -0.07520        -8.73171
   C       -1.33514         1.21067        -8.62998
   C        2.81020         7.61255        -9.73767
   C        2.60452         8.64742        -8.62950
   C        0.70583        -1.77933        -9.74558
   C        1.91360        -1.91274        -8.81547
   H       -0.21659         2.83596         5.41989
   H       -5.91751         5.41501         6.32022
   H       -3.73621         2.10923         9.35143
   H        1.16192         3.12967         3.26204
   H       -3.62932         4.41971        -0.49588
   H        0.78850         3.54516        -2.70508
   H       -2.52372         6.75851        -2.15262
   H        2.88788         2.94974        -1.43940
   H        3.89172         0.78101        -1.98137
   H        1.14143        -1.15078         0.64259
   H        0.11939         1.00952         1.16943
   H        0.68756         6.04368        -0.79919
   H        2.32989         7.83354        -0.50575
   H        4.81514         5.19989         1.74515
   H        3.17511         3.40118         1.45035
   H       -5.77534         4.86218        -1.78540
   H       -7.63274         3.31070        -1.40444
   H       -5.91061         0.56324        -4.17332
   H       -4.03724         2.09351        -4.53399
   H       -5.73247         5.56632        -4.70710
   H       -6.47889         7.89588        -4.85200
   H       -3.28368         9.07862        -2.28684
   H        2.52371        -2.46821        -0.88625
   H        3.63124        -1.67122        -2.01303
   H        4.04857        -1.90317         1.00696
   H        4.88821        -2.85272        -0.22360
   H        5.15230        -1.10914        -0.11602
   H        5.68579         7.35959         0.92195
   H        4.62980         8.46859         0.03478
   H        4.39853         7.80624         3.01108
   H        5.04741         9.30492         2.33656
   H        3.33854         8.90313         2.12927
   H       -7.76691        -0.12828        -2.72038
   H       -8.48100         1.01303        -1.57158
   H       -8.80687         1.12680        -4.61004
   H      -10.03227         0.57608        -3.46288
   H       -9.51656         2.26593        -3.46624
   H       -4.58406        10.76135        -3.51410
   H       -5.91248        10.27161        -4.57622
   H       -5.95664        10.14586        -1.52117
   H       -6.77711        11.35655        -2.51219
   H       -7.28142         9.66467        -2.58117
   H       -3.59734         3.79859       -14.31983
   H       -9.81055         3.20331       -13.27493
   H       -7.75532         4.89896       -17.49101
   H       -1.83019         3.33339       -12.46458
   H       -1.36997         5.94249       -10.89403
   H        0.42277         7.60336       -11.02945
   H        2.77377         5.30140        -8.31625
   H        0.98702         3.62689        -8.18913
   H        0.48074         2.67290       -11.06550
   H        1.35259         0.38774       -11.24736
   H       -1.21690        -0.84462        -8.07530
   H       -2.10145         1.42689        -7.90038
   H        3.78620         7.13971        -9.61133
   H        2.79619         8.11518       -10.70666
   H        2.63222         8.16753        -7.65377
   H        3.38381         9.40482        -8.66717
   H        1.63921         9.13582        -8.74256
   H       -0.05391        -2.50752        -9.45556
   H        1.01469        -1.99672       -10.76975
   H        1.62352        -1.70959        -7.78693
   H        2.32508        -2.91795        -8.86862
   H        2.68923        -1.20428        -9.09811
*
