# ORCA input file
# SCF done       -183.679223603332          0.000668394156
! wb97x-d3 def2-SVP def2/J RIJCOSX Grid4 TightSCF
%maxcore 5000
%tddft
    Mode sTDA
    Ethresh 5.0
    maxcore 5000
end

%pal
  nprocs 6
  end
* xyz -1 2
   C       -9.39144       -12.50516       -24.24672
   O       -8.68974       -12.13378       -23.32214
   C       -9.01500       -13.49486       -25.27782
   C       -7.82017       -14.17065       -25.42275
   C       -7.70654       -15.05295       -26.48514
   F       -6.56481       -15.72800       -26.66653
   C       -8.76999       -15.24285       -27.36738
   F       -8.63264       -16.09993       -28.38493
   C       -9.97101       -14.56397       -27.21960
   C      -10.09231       -13.67838       -26.16059
   C      -11.19951       -12.81835       -25.73667
   C      -12.42257       -12.75173       -26.35372
   C      -13.50366       -11.93609       -25.95896
   N      -14.42652       -11.30044       -25.70438
   C      -12.77689       -13.50997       -27.49010
   N      -13.12847       -14.09598       -28.41214
   C      -10.75396       -12.08502       -24.56982
   C      -11.49032       -11.13119       -23.90389
   C      -11.18047       -10.33926       -22.79770
   S       -9.67590       -10.42533       -21.87746
   C      -10.21556        -9.15100       -20.85163
   C      -11.49159        -8.68363       -21.21945
   C      -12.05172        -9.35188       -22.29764
   C      -13.38273        -8.99138       -22.87051
   C      -13.22640        -8.01653       -24.04125
   S      -12.05934        -7.34301       -20.24111
   C      -10.57928        -7.41224       -19.35181
   C       -9.71023        -8.42737       -19.76851
   N       -8.56576        -8.41174       -19.01277
   C       -7.39253        -9.03419       -19.59197
   C       -8.67357        -7.36211       -18.10831
   C       -9.92508        -6.70994       -18.33356
   C      -10.28483        -5.51158       -17.67857
   N      -11.38185        -4.78484       -17.82547
   S      -11.24149        -3.45893       -16.90765
   N       -9.77959        -3.76377       -16.28713
   C       -9.34816        -4.91561       -16.77540
   C       -8.16811        -5.62524       -16.46239
   C       -7.85032        -6.88178       -17.05172
   N       -6.74826        -7.39757       -16.39407
   C       -6.20153        -8.72872       -16.48918
   C       -4.89326        -8.76218       -17.28303
   C       -6.34418        -6.49170       -15.43167
   C       -7.19680        -5.37063       -15.48869
   S       -6.81812        -4.14219       -14.36928
   C       -5.48876        -5.13791       -13.76927
   C       -5.38026        -6.38663       -14.42701
   C       -4.50542        -3.57473       -12.03608
   C       -3.47887        -3.30885       -11.04939
   C       -2.47123        -4.14468       -10.63719
   C       -1.50561        -3.80245        -9.66668
   N       -0.68763        -3.59266        -8.88922
   C       -2.23620        -5.45509       -11.10149
   N       -1.96772        -6.52526       -11.42461
   C       -3.69299        -1.94977       -10.54793
   C       -2.99678        -1.19361        -9.61812
   C       -3.44586         0.09269        -9.35676
   F       -2.78453         0.83919        -8.46456
   C       -4.56332         0.62462        -9.99976
   F       -4.95958         1.87178        -9.71751
   C       -5.26574        -0.12549       -10.92954
   C       -4.81682        -1.40437       -11.18956
   C       -5.37284        -2.39737       -12.13562
   O       -6.35040        -2.24090       -12.84021
   C       -6.64034        -8.04739       -20.48244
   C       -4.41635        -7.44104       -13.97298
   C       -4.96519        -8.18123       -12.74809
   C       -4.60559        -4.74003       -12.76107
   H       -7.00066       -14.02023       -24.73836
   H      -10.76025       -14.74729       -27.92979
   H      -12.47495       -10.93514       -24.30516
   H      -13.91932        -9.87937       -23.20749
   H      -13.97235        -8.51235       -22.08646
   H      -12.63896        -8.46327       -24.84001
   H      -14.20451        -7.75853       -24.43643
   H      -12.73078        -7.10634       -23.71196
   H       -7.74980        -9.87108       -20.19708
   H       -6.73637        -9.43703       -18.82863
   H       -6.02194        -9.09243       -15.47351
   H       -6.95859        -9.38110       -16.92781
   H       -4.12680        -8.17664       -16.78239
   H       -4.54082        -9.78646       -17.37416
   H       -5.01879        -8.34127       -18.27567
   H       -2.12763        -1.55489        -9.09382
   H       -6.12982         0.28070       -11.43063
   H       -7.28137        -7.70975       -21.29329
   H       -6.32345        -7.17590       -19.91218
   H       -5.76628        -8.52847       -20.91227
   H       -4.23201        -8.16198       -14.76466
   H       -3.45231        -6.99942       -13.71629
   H       -5.91517        -8.65995       -12.97860
   H       -4.25708        -8.94110       -12.42936
   H       -5.12420        -7.49331       -11.92203
   H       -3.85430        -5.47944       -12.52494
*
