# ORCA input file
# SCF done       -221.998710941548          0.000747285540
! wb97x-d3 def2-SVP def2/J RIJCOSX Grid4 TightSCF
%maxcore 5000
%tddft
    Mode sTDA
    Ethresh 5.0
    maxcore 5000
end

%pal
  nprocs 6
  end
* xyz -1 2
   C       -8.01278         1.41043         3.32936
   O       -7.75863         2.56646         3.61684
   C       -9.33656         0.76015         3.43726
   C      -10.52421         1.30128         3.88591
   C      -11.63965         0.47890         3.89866
   C      -11.55036        -0.84482         3.46975
   C      -10.35566        -1.38702         3.01771
   C       -9.23540        -0.57170         3.00263
   C       -7.85112        -0.83044         2.59780
   C       -7.38855        -2.02463         2.10529
   C       -6.06437        -2.29532         1.70289
   N       -5.01349        -2.60139         1.35311
   C       -8.19182        -3.17057         1.92628
   N       -8.78561        -4.13816         1.75601
   C       -7.10277         0.38824         2.81446
   F      -12.64285        -1.61746         3.49367
   C       -5.75208         0.55171         2.59421
   F      -12.81344         0.95999         4.32784
   C       -1.33945        19.01008        10.51578
   O       -1.85612        18.13401         9.84550
   C       -1.99760        20.25106        10.98022
   C       -3.29007        20.67599        10.74979
   C       -3.67304        21.89206        11.29363
   C       -2.77459        22.64784        12.04512
   C       -1.47542        22.21869        12.27711
   C       -1.08443        21.00459        11.73622
   C        0.18998        20.28324        11.78960
   C        1.30476        20.71044        12.46689
   C        2.53608        20.02787        12.54582
   N        3.56896        19.53760        12.66204
   C        1.37182        21.91343        13.20047
   N        1.49261        22.87605        13.81406
   C        0.03061        19.06815        11.02276
   F       -3.16945        23.81960        12.55792
   C        1.01577        18.13233        10.78823
   F       -4.91787        22.34470        11.09373
   C        0.98449        16.93562        10.07430
   S       -0.40285        16.22876         9.25437
   C        0.56482        14.90675         8.77409
   C        1.90574        14.98618         9.21160
   C        2.13052        16.12718         9.93959
   C        0.39899        13.72404         8.02915
   C        1.61964        13.04499         7.97605
   C        2.70253        13.79741         8.71966
   S       -0.85510        12.88955         7.20440
   C        0.26286        11.61215         6.78508
   C        1.54290        11.85831         7.26863
   C       -0.17365        10.46363         6.05748
   C       -1.51996        10.28596         5.70620
   C       -1.96589         9.14156         5.01001
   C       -1.12665         8.06577         4.71199
   C        0.24780         8.23510         5.02476
   C        0.72104         9.42879         5.67444
   N        1.23421         7.37438         4.78628
   S        2.61878         7.99951         5.31354
   N        2.03647         9.38935         5.87452
   C       -1.63227         6.83897         4.17670
   S       -3.34485         6.48472         4.23757
   C       -3.03918         4.91062         3.62701
   C       -1.68379         4.67938         3.37002
   C       -0.89371         5.77726         3.67378
   C       -3.78165         3.75989         3.30122
   C       -2.89351         2.77675         2.81873
   C       -1.46988         3.29230         2.80547
   S       -5.40626         3.24163         3.38972
   C       -4.92490         1.65698         2.79262
   C       -3.53967         1.59839         2.54325
   O       -2.36017        11.30821         6.02606
   O       -3.28899         9.06565         4.62374
   C       -3.58873        11.03059         6.69549
   C       -3.37165        10.30708         8.01695
   C       -3.53172         9.44139         3.26877
   C       -3.34279        10.92987         3.01077
   C       -0.61221         2.40686         3.73033
   C        0.83986         2.84246         3.87529
   C       -0.91366         3.42593         1.37363
   C       -0.71204         2.10789         0.63848
   C        3.26501        12.89882         9.84553
   C        3.70930        13.61929        11.11289
   C        3.77035        14.21498         7.68549
   C        4.94975        15.00428         8.23455
   H      -10.58721         2.32546         4.21720
   H      -10.34201        -2.41593         2.69831
   H       -5.21923        -0.31333         2.21853
   H       -3.98187        20.08848        10.16759
   H       -0.82130        22.84215        12.86391
   H        1.98811        18.34439        11.21576
   H        3.06242        16.41806        10.38986
   H        2.35353        11.17595         7.09722
   H        0.17047         5.84652         3.55320
   H       -3.07796         0.69360         2.18957
   H       -4.01541        12.02202         6.86364
   H       -4.25481        10.44740         6.05451
   H       -2.69181        10.87161         8.65092
   H       -4.32293        10.19717         8.52905
   H       -2.95322         9.31747         7.84318
   H       -2.88030         8.86186         2.60098
   H       -4.56864         9.14708         3.09263
   H       -2.31017        11.22515         3.18536
   H       -3.59678        11.14678         1.97688
   H       -3.98480        11.51746         3.66152
   H       -1.08337         2.40761         4.71668
   H       -0.65049         1.38434         3.35213
   H        0.90645         3.83905         4.30182
   H        1.35655         2.15450         4.54089
   H        1.35375         2.83426         2.91812
   H       -1.61199         4.04597         0.80530
   H        0.03325         3.96519         1.42599
   H       -1.65216         1.57371         0.53545
   H       -0.32578         2.30605        -0.35884
   H       -0.00030         1.46980         1.15455
   H        2.48822        12.18204        10.12373
   H        4.10034        12.32886         9.43489
   H        2.86490        14.10172        11.59828
   H        4.12880        12.89414        11.80722
   H        4.46616        14.36928        10.90835
   H        4.13981        13.30467         7.20776
   H        3.27108        14.81056         6.91654
   H        5.52481        14.41279         8.94110
   H        5.60890        15.28052         7.41422
   H        4.61694        15.91679         8.72052
*
