# ORCA input file
# SCF done       -236.135608256964          0.000451981520
! wb97x-d3 def2-SVP def2/J RIJCOSX Grid4 TightSCF
%maxcore 5000
%tddft
    Mode sTDA
    Ethresh 5.0
    maxcore 5000
end

%pal
  nprocs 6
  end
* xyz -1 2
   C       -0.49459         0.52239        -1.31296
   C       -1.08899         1.56066        -0.53503
   C       -0.84676         1.61445         0.83894
   C       -0.05636         0.63816         1.39633
   C        0.54312        -0.39675         0.61701
   C        0.32298        -0.43497        -0.76128
   S        0.28299         0.47740         3.11017
   C        1.18301        -0.96382         2.78459
   C        1.26284        -1.28672         1.44205
   C        1.82478        -1.96419         3.55329
   C        2.31255        -2.94760         2.67846
   C        2.03084        -2.57356         1.23697
   C        1.12111        -3.56219         0.52846
   C        3.36204        -2.39286         0.53219
   C        0.09318        -4.17871         1.22990
   C       -0.78494        -5.02930         0.58558
   C       -0.66494        -5.28200        -0.77472
   C        0.35965        -4.65712        -1.47268
   C        1.24157        -3.80613        -0.83285
   C        4.13831        -3.51462         0.26190
   C        5.37487        -3.38513        -0.33795
   C        5.87342        -2.13376        -0.68062
   C        5.09310        -1.01851        -0.41221
   C        3.85371        -1.14211         0.19145
   C       -1.65193        -6.16100        -1.48633
   C       -2.81119        -5.32377        -2.03108
   C        7.20117        -2.00028        -1.36839
   C        7.03330        -2.11771        -2.88472
   S        2.09049        -2.31979         5.20311
   C        2.87931        -3.82196         4.74343
   C        2.91419        -3.98608         3.35086
   C        3.40651        -4.78693         5.61350
   C        3.42372        -4.84122         6.98170
   C        2.85491        -3.84093         7.90393
   C        3.07501        -4.38398         9.24945
   C        3.73721        -5.60054         9.14233
   C        3.98448        -5.93159         7.76642
   O        2.31571        -2.78800         7.61805
   C        4.62674        -7.06992         7.34276
   C        4.88732        -7.42625         6.00746
   C        5.09799        -8.01880         8.27333
   N        5.13309        -7.77685         4.94105
   N        5.48606        -8.79677         9.02275
   S       -0.96973         0.58648        -3.00113
   C       -1.96701         1.95827        -2.65588
   C       -1.92625         2.36707        -1.33454
   C       -2.86889         2.78131        -3.37093
   C       -3.38691         3.74837        -2.49818
   C       -2.78532         3.59221        -1.11886
   C       -3.90496         3.43394        -0.11109
   C       -1.84288         4.73509        -0.76230
   C       -4.23569         2.20508         0.43901
   C       -5.27926         2.10285         1.34252
   C       -6.02417         3.21596         1.70420
   C       -5.69952         4.44141         1.13449
   C       -4.65605         4.55124         0.23763
   C       -1.12415         5.38624        -1.75609
   C       -0.22680         6.38649        -1.43331
   C       -0.01301         6.75491        -0.11171
   C       -0.72691         6.09393         0.87870
   C       -1.62722         5.09416         0.56107
   C       -7.11975         3.11313         2.72549
   C       -6.56832         3.38987         4.12588
   C        0.92717         7.87324         0.23301
   C        0.18299         9.21016         0.24418
   S       -3.53012         2.89046        -4.93915
   C       -4.55729         4.23573        -4.42184
   C       -4.33457         4.56191        -3.08693
   C       -5.43355         4.74928        -5.39366
   C       -6.44510         5.66857        -5.31279
   C       -6.96953         6.38745        -4.12154
   C       -8.16083         7.10026        -4.60178
   C       -8.31385         6.87991        -5.96292
   C       -7.27245         6.02733        -6.46137
   O       -6.53764         6.41080        -2.98723
   C       -7.13524         5.67510        -7.78218
   C       -6.12039         4.87829        -8.34357
   C       -8.05816         6.13415        -8.74520
   N       -5.32531         4.24749        -8.88232
   N       -8.80273         6.49861        -9.53910
   C       -9.16909         7.92632        -4.09296
   C      -10.07631         8.31985        -5.08553
   S       -9.68329         7.67650        -6.65006
   S       -9.59471         8.58379        -2.56016
   C      -10.96676         9.36697        -3.26624
   C      -11.10544         9.14802        -4.60104
   C        2.81708        -4.04967        10.58328
   C        3.29182        -5.02557        11.47026
   S        4.05954        -6.35585        10.66058
   S        2.06146        -2.75279        11.42585
   C        2.38979        -3.53062        12.93641
   C        3.04184        -4.71819        12.82024
   H       -1.29525         2.38602         1.44211
   H        0.76063        -1.21527        -1.36161
   H       -0.02132        -3.99192         2.28809
   H       -1.57616        -5.50352         1.14856
   H        0.47058        -4.83780        -2.53240
   H        2.03433        -3.33713        -1.39791
   H        3.76325        -4.49575         0.51284
   H        5.96482        -4.26778        -0.53905
   H        5.45935        -0.03565        -0.67267
   H        3.27150        -0.25539         0.39384
   H       -1.16036        -6.67580        -2.31416
   H       -2.04249        -6.91358        -0.79870
   H       -2.44231        -4.57430        -2.72783
   H       -3.52769        -5.95701        -2.54879
   H       -3.32249        -4.81193        -1.21870
   H        7.64632        -1.03248        -1.12935
   H        7.87753        -2.78343        -1.02014
   H        6.37192        -1.33692        -3.25383
   H        7.99547        -2.02200        -3.38223
   H        6.60250        -3.08216        -3.14434
   H        3.35669        -4.85439         2.89698
   H        3.85533        -5.62492         5.09284
   H       -3.67934         1.31975         0.16880
   H       -5.51794         1.13869         1.76862
   H       -6.27267         5.31975         1.39335
   H       -4.41427         5.51313        -0.18891
   H       -1.26578         5.11361        -2.79180
   H        0.31903         6.88518        -2.22148
   H       -0.57487         6.36146         1.91467
   H       -2.17560         4.60189         1.35084
   H       -7.90531         3.83660         2.49876
   H       -7.55738         2.11320         2.70182
   H       -6.13900         4.38825         4.17267
   H       -7.35951         3.31687         4.86836
   H       -5.79061         2.67120         4.37498
   H        1.36683         7.69774         1.21686
   H        1.73502         7.91744        -0.50015
   H       -0.61928         9.19025         0.97839
   H        0.86245        10.02187         0.49319
   H       -0.25281         9.40850        -0.73246
   H       -4.86817         5.35471        -2.59782
   H       -5.29014         4.29971        -6.36979
   H      -11.60210         9.95558        -2.63435
   H      -11.89597         9.55258        -5.20483
   H        2.07173        -3.04937        13.84009
   H        3.32726        -5.33923        13.64852
*
