# ORCA input file
# SCF done       -228.988596625042          0.000681839653
! wb97x-d3 def2-SVP def2/J RIJCOSX Grid4 TightSCF
%maxcore 5000
%tddft
    Mode sTDA
    Ethresh 5.0
    maxcore 5000
end

%pal
  nprocs 6
  end
* xyz -1 2
   C       -0.71388        -0.49723        -0.72975
   C       -1.20318         0.60373         0.03355
   C       -0.56484         0.93693         1.23028
   C        0.47675         0.15332         1.66745
   C        0.94746        -0.96515         0.91762
   C        0.35290        -1.25757        -0.31155
  Se        1.36380         0.34706         3.33332
   C        2.26938        -1.21847         2.85873
   C        1.94686        -1.69536         1.59907
   C        3.14050        -2.14047         3.48788
   C        3.36171        -3.22599         2.62994
   C        2.66835        -2.99295         1.30522
   C        1.63492        -4.05806         0.98055
   C        3.74213        -2.86625         0.23860
   C        1.43031        -4.50584        -0.31716
   C        0.42945        -5.41939        -0.59253
   C       -0.39340        -5.90477         0.41455
   C       -0.18227        -5.45522         1.71164
   C        0.81377        -4.53975         1.99183
   C        4.50111        -3.98546        -0.08708
   C        5.51246        -3.89752        -1.02247
   C        5.79822        -2.69291        -1.65462
   C        5.03474        -1.58161        -1.32857
   C        4.02046        -1.66217        -0.38988
   C       -1.45230        -6.92539         0.11466
   C       -0.87179        -8.33818         0.20366
   C        6.87473        -2.61333        -2.69796
   C        6.31846        -2.99352        -4.07168
   S        3.89220        -2.33684         5.00545
   C        4.49407        -3.92670         4.51168
   C        4.12305        -4.22507         3.20224
   C        5.19319        -4.64685         5.49353
   C        5.70603        -5.91820         5.51129
   C        5.68793        -6.94684         4.43678
   C        6.29176        -8.12298         5.05789
   C        6.67461        -7.86918         6.36494
   C        6.34378        -6.49319         6.68785
   O        5.27993        -6.85922         3.29667
   C        6.61352        -5.91089         7.89897
   C        7.23865        -6.62967         8.94082
   C        6.33842        -4.58354         8.28523
   N        7.73941        -7.18808         9.80921
   N        6.15997        -3.52207         8.68680
  Se       -1.75367        -0.83663        -2.27914
   C       -2.83401         0.56491        -1.67520
   C       -2.37715         1.16721        -0.51412
   C       -4.06084         1.16454        -2.05058
   C       -4.37717         2.17745        -1.13593
   C       -3.29494         2.29159        -0.08671
   C       -3.93126         2.11411         1.27819
   C       -2.51253         3.59351        -0.20642
   C       -3.83568         0.92752         1.98949
   C       -4.44746         0.80190         3.22447
   C       -5.18130         1.84559         3.76945
   C       -5.29455         3.02319         3.04016
   C       -4.68205         3.15706         1.81013
   C       -1.94247         4.19914         0.90463
   C       -1.20555         5.36134         0.76944
   C       -1.01573         5.94824        -0.47403
   C       -1.57375         5.32894        -1.58477
   C       -2.30817         4.16579        -1.45547
   C       -5.79437         1.72588         5.13440
   C       -4.81292         2.21508         6.20179
   C       -0.18973         7.19298        -0.62175
   C        1.27504         6.83672        -0.88347
   S       -5.26674         0.95266        -3.23764
   C       -6.24466         2.22278        -2.48498
   C       -5.59946         2.77093        -1.37869
   C       -7.49960         2.45524        -3.07054
   C       -8.54782         3.26044        -2.70708
   C       -8.66532         4.16569        -1.53208
   C      -10.03633         4.66521        -1.60233
   C      -10.70522         4.16540        -2.70778
   C       -9.80426         3.29678        -3.44305
   O       -7.83360         4.44943        -0.69476
   C      -10.14102         2.66723        -4.61299
   C      -11.42278         2.81141        -5.18659
   C       -9.31850         1.83343        -5.39711
   N      -12.45499         2.90767        -5.67846
   N       -8.72479         1.14664        -6.10117
   S      -11.00739         5.70915        -0.65588
   C      -12.32871         5.46259        -1.76592
   C      -12.03114         4.62468        -2.80617
  Cl      -13.82202         6.23594        -1.49995
   S        6.63478        -9.72579         4.56582
   C        7.29785       -10.05294         6.14444
   C        7.25709        -8.98289         6.99659
  Cl        7.91848       -11.59664         6.50593
   H       -0.91928         1.77078         1.81587
   H        0.70230        -2.09674        -0.89309
   H        2.05746        -4.14545        -1.12009
   H        0.28273        -5.75492        -1.60931
   H       -0.81015        -5.82053         2.51168
   H        0.95367        -4.19399         3.00626
   H        4.29245        -4.93141         0.38901
   H        6.09382        -4.77641        -1.26088
   H        5.23693        -0.63487        -1.80895
   H        3.44774        -0.77794        -0.15208
   H       -2.27345        -6.82764         0.82749
   H       -1.84944        -6.76218        -0.88925
   H       -0.47607        -8.52235         1.19993
   H       -1.63947        -9.07855        -0.00845
   H       -0.06274        -8.46067        -0.51284
   H        7.27623        -1.59901        -2.74004
   H        7.68901        -3.29330        -2.43965
   H        5.52010        -2.31237        -4.35859
   H        7.10160        -2.94781        -4.82488
   H        5.91541        -4.00375        -4.05041
   H        4.39771        -5.15177         2.73515
   H        5.31315        -4.08811         6.41470
   H       -3.28170         0.09234         1.58734
   H       -4.35355        -0.12689         3.76900
   H       -5.87201         3.84482         3.43812
   H       -4.77822         4.08201         1.26156
   H       -2.08877         3.77658         1.88803
   H       -0.77642         5.82174         1.64793
   H       -1.43642         5.76467        -2.56403
   H       -2.73092         3.70403        -2.33597
   H       -6.70698         2.32281         5.18393
   H       -6.05434         0.68460         5.33465
   H       -4.55224         3.25657         6.02694
   H       -5.25339         2.12898         7.19221
   H       -3.89962         1.62466         6.17516
   H       -0.56823         7.79076        -1.45325
   H       -0.25722         7.79182         0.28853
   H        1.36543         6.25289        -1.79679
   H        1.87261         7.73926        -0.98731
   H        1.67427         6.24795        -0.06057
   H       -6.03990         3.55687        -0.79488
   H       -7.66593         1.85214        -3.95591
   H      -12.73137         4.36684        -3.57814
   H        7.62390        -9.01461         8.00514
*
