# ORCA input file
# SCF done       -170.226410382706          0.000552383659
! wb97x-d3 def2-SVP def2/J RIJCOSX Grid4 TightSCF
%maxcore 5000
%tddft
    Mode sTDA
    Ethresh 5.0
    maxcore 5000
end

%pal
  nprocs 6
  end
* xyz -1 2
   C       -1.06548        -0.16833         4.99290
   O       -0.25727         0.63987         5.40948
   C       -1.65734        -1.29216         5.72979
   C       -2.57512        -1.98418         4.87505
   C       -2.59958        -1.33203         3.57944
   C       -3.38442        -1.73603         2.52843
   C       -4.24056        -2.84995         2.64473
   N       -4.94456        -3.75323         2.72177
   C       -3.44993        -1.13605         1.25752
   N       -3.55483        -0.69638         0.20066
   C       -1.66201        -0.22612         3.64602
   C       -1.36804         0.61219         2.59964
   C       11.42440        11.59663        -3.17219
   O       10.31499        11.21223        -3.49055
   C       12.46609        12.13212        -4.05758
   C       13.61391        12.48280        -3.27572
   C       13.34567        12.18699        -1.88112
   C       14.23508        12.41341        -0.86082
   C       15.51037        12.95869        -1.11373
   N       16.55371        13.39913        -1.30067
   C       14.02044        12.15460         0.50543
   N       13.91202        11.97030         1.63478
   C       12.00706        11.62869        -1.81814
   C       11.40195        11.17923        -0.67138
   C       -0.46707         1.68020         2.50012
   C       -0.28922         2.36392         1.29229
   C        0.67113         3.35341         1.39279
   C        1.23244         3.44758         2.69163
   S        0.57143         2.29820         3.78791
   N        1.26432         4.26037         0.55277
   C        2.18914         4.95519         1.29090
   C        2.18389         4.45802         2.61153
   C        3.17928         5.96369         1.09298
   C        3.89488         6.18069         2.29949
   S        3.34745         5.20346         3.64803
   C        3.55083         6.71026        -0.04468
   C        4.69691         7.49350         0.03842
   C        5.43674         7.67578         1.24630
   C        4.96397         7.05600         2.41329
   S        5.43206         8.30050        -1.34522
   C        6.73196         8.83760        -0.34765
   C        6.60606         8.45707         1.00267
   C        7.93838         9.51142        -0.50052
   C        8.52661         9.52688         0.78934
   N        7.71471         8.88508         1.68867
   S        8.93158        10.25018        -1.69543
   C       10.15346        10.57792        -0.46341
   C        9.76932        10.13344         0.80620
   O        2.78848         6.54271        -1.15984
   O        5.57884         7.23768         3.62572
   C        2.51757         7.62903        -2.03584
   C        1.96356         8.85380        -1.32171
   C        4.81844         7.94078         4.60946
   C        5.40614         7.63666         5.97551
   C        8.04954         8.79406         3.08904
   C        7.79481        10.12063         3.80255
   C        0.85632         4.40748        -0.82290
   C       -0.32822         5.36255        -0.94762
   C       -1.56499        -1.83512         6.96901
   S       -2.60189        -3.20744         7.11204
   C       -3.16410        -3.04627         5.48862
   C       12.62559        12.37344        -5.38254
   S       14.18794        13.03538        -5.69776
   C       14.62816        12.98652        -4.03010
   H       -1.89782         0.42126         1.67349
   H       11.97938        11.27521         0.24089
   H       -0.84826         2.11199         0.40886
   H       10.40235        10.25369         1.66713
   H        3.40326         7.89553        -2.62146
   H        1.76772         7.21755        -2.71730
   H        2.71235         9.29353        -0.66752
   H        1.66837         9.59525        -2.05798
   H        1.09486         8.58517        -0.72438
   H        4.86982         9.01775         4.39401
   H        3.76819         7.63427         4.57311
   H        6.44915         7.93848         6.01359
   H        4.85150         8.17356         6.73934
   H        5.34358         6.57010         6.17213
   H        7.45700         7.99743         3.53561
   H        9.10957         8.53236         3.16211
   H        6.74609        10.39782         3.72729
   H        8.05743        10.03277         4.85294
   H        8.39125        10.91518         3.35993
   H        1.70109         4.77319        -1.40311
   H        0.57638         3.41593        -1.18866
   H       -0.04927         6.35095        -0.59252
   H       -0.63768         5.43768        -1.98612
   H       -1.16926         5.00584        -0.35713
   H       -0.96299        -1.52613         7.79974
   H       -3.88291        -3.74458         5.10954
   H       11.93828        12.20788        -6.18766
   H       15.59823        13.33049        -3.73224
*
