# ORCA input file
# SCF done       -191.406189317444          0.000670878376
! wb97x-d3 def2-SVP def2/J RIJCOSX Grid4 TightSCF
%maxcore 5000
%tddft
    Mode sTDA
    Ethresh 5.0
    maxcore 5000
end

%pal
  nprocs 6
  end
* xyz -1 2
   C        1.18818        -0.12787        -0.30925
   C        0.83126         0.83262         0.66558
   S        0.15632         0.11206         2.13309
   C        0.36396        -1.43784         1.45051
   C        0.91613        -1.41155         0.15122
   N        1.08519        -2.71239        -0.30117
   C        0.96181        -3.07795        -1.69941
   C        0.66677        -3.54851         0.71992
   C        0.17200        -2.78417         1.80525
   C       -0.43460        -3.42478         2.91026
   N       -0.98345        -2.87498         3.98184
   S       -1.61087        -4.04510         4.90263
   N       -1.20674        -5.30673         3.97700
   C       -0.56179        -4.86024         2.91047
   C        0.03735        -5.60689         1.86981
   C        0.72260        -4.94893         0.82312
   N        1.35254        -5.87923        -0.00023
   C        2.69756        -5.62252        -0.49278
   C        3.75065        -6.03567         0.53490
   C        1.01121        -7.13101         0.49405
   C        0.21062        -6.98376         1.64017
   S       -0.25544        -8.46139         2.40234
   C        0.61507        -9.31909         1.16398
   C        1.22381        -8.48307         0.19138
   C       -0.36722        -2.60083        -2.28480
   C        0.22339         3.26082         2.63786
   O       -0.14984         2.29746         3.27824
   C        0.19444         4.66987         3.09037
   C       -0.23652         5.17162         4.30161
   C       -0.15740         6.54190         4.49342
   C        0.34153         7.37148         3.48959
   F        0.40952         8.69111         3.70197
   C        0.77221         6.86590         2.27157
   C        0.69607         5.49654         2.07186
   C        1.06078         4.66149         0.92536
   C        1.56246         5.13648        -0.26107
   C        1.90880         4.35904        -1.38499
   N        2.21227         3.80344        -2.34489
   C        1.80086         6.50106        -0.52994
   N        2.02359         7.59021        -0.81637
   C        0.78299         3.28689         1.28434
   C        1.02493         2.20221         0.47228
   C        1.79712       -14.18514        -0.37628
   C        1.46908       -15.34753         0.28176
   C        1.86595       -16.68100        -0.11616
   C        2.66067       -17.03897        -1.17575
   C        3.01265       -18.36925        -1.48767
   N        3.33488       -19.42554        -1.80080
   C        3.25165       -16.15426        -2.10134
   N        3.77529       -15.50606        -2.89280
   C        1.27752       -17.61692         0.84458
   C        1.33349       -18.99896         0.93046
   C        0.66168       -19.61451         1.97673
   F        0.70403       -20.94824         2.07642
   C       -0.05353       -18.88019         2.92240
   C       -0.11425       -17.49780         2.84384
   C        0.55484       -16.88668         1.80281
   C        0.65168       -15.44342         1.49322
   O        0.14360       -14.53821         2.12737
   N        1.82940        -9.26115        -0.76621
   C        1.63608       -10.57078        -0.39927
   C        0.88476       -10.63722         0.80486
   C        2.40300        -8.86802        -2.02910
   C        3.92974        -8.89970        -2.00757
   C        1.98093       -11.81147        -0.89235
   C        1.51371       -12.85012        -0.07457
   S        0.61170       -12.25332         1.32247
   C        1.87800         0.20803        -1.59570
   C        3.39334         0.28174        -1.38438
   F       -0.56227         7.07431         5.65315
   F       -0.68694       -19.51665         3.91529
   H        1.80298        -2.65919        -2.25960
   H        0.99675        -4.16432        -1.77497
   H        2.85081        -6.15900        -1.43141
   H        2.79878        -4.55438        -0.67999
   H        3.67594        -7.09548         0.76701
   H        4.74511        -5.82737         0.14894
   H        3.61126        -5.47458         1.45656
   H       -0.46363        -1.52061        -2.21607
   H       -0.43379        -2.89174        -3.32969
   H       -1.19494        -3.05379        -1.74333
   H       -0.62075         4.52489         5.07413
   H        1.14888         7.55143         1.53059
   H        1.45333         2.44521        -0.48955
   H        2.38235       -14.29636        -1.28093
   H        1.87063       -19.61325         0.22682
   H       -0.66546       -16.92532         3.57266
   H        2.03791        -9.56238        -2.79310
   H        2.03468        -7.87093        -2.27992
   H        4.27909        -9.90053        -1.76799
   H        4.31810        -8.62172        -2.98355
   H        4.32494        -8.21240        -1.26487
   H        2.54685       -12.00225        -1.78657
   H        1.66165        -0.55251        -2.34427
   H        1.52654         1.16051        -1.99365
   H        3.77574        -0.66946        -1.01935
   H        3.88709         0.52375        -2.32154
   H        3.63972         1.05144        -0.65749
*
