# ORCA input file
# SCF done       -224.676225425183          0.000428993210
! wb97x-d3 def2-SVP def2/J RIJCOSX Grid4 TightSCF
%maxcore 5000
%tddft
    Mode sTDA
    Ethresh 5.0
    maxcore 5000
end

%pal
  nprocs 6
  end
* xyz -1 2
   C       -0.41070        -2.62024         1.88393
   O       -1.09397        -1.61355         1.90988
   C       -0.66219        -3.78888         1.01977
   C       -1.64859        -3.95877         0.09244
   C       -1.70178        -5.16376        -0.64269
   C       -0.72311        -6.16954        -0.39677
   C        0.28526        -5.96364         0.57401
   C        0.31482        -4.78827         1.27599
   C        1.21096        -4.29577         2.31996
   C        2.22852        -5.03111         2.87652
   C        3.08633        -4.63218         3.92245
   N        3.82581        -4.41315         4.77476
   C        2.55818        -6.34510         2.48371
   N        2.88782        -7.41238         2.21642
   C        0.80177        -2.94549         2.66116
   C        1.51250        -2.14160         3.52319
   C        3.33822        18.02077         9.80488
   O        2.73636        17.00104         9.50878
   C        2.78027        19.38386         9.82441
   C        1.51268        19.79443         9.53249
   C        1.19500        21.16792         9.63060
   C        2.20579        22.08732        10.03366
   C        3.51297        21.62999        10.32580
   C        3.79866        20.29558        10.22093
   C        5.03036        19.54141        10.45273
   C        6.23244        20.09568        10.81977
   C        7.43406        19.39348        11.03995
   N        8.45310        18.89953        11.23786
   C        6.43654        21.47565        11.02338
   N        6.67547        22.58458        11.20317
   C        4.73878        18.14565        10.21031
   C        5.62845        17.10292        10.34583
   C        5.46419        15.73336        10.13456
   S        4.00215        14.91622         9.59083
   C        4.82982        13.42213         9.63762
   C        6.16837        13.52454        10.06844
   C        6.52014        14.82396        10.33398
   C        4.57165        12.07424         9.31761
   C        5.71922        11.31268         9.53091
   C        6.83987        12.17037        10.07160
   S        3.27523        11.13191         8.70818
   C        4.28231         9.68885         8.73303
   C        5.55182         9.97213         9.20744
   C        3.73868         8.44680         8.25300
   C        4.46569         7.23161         8.23471
   C        3.87321         6.11259         7.68221
   C        2.58089         6.10520         7.14598
   C        1.83282         7.30603         7.21527
   C        2.43184         8.42738         7.75506
   C        2.08217         4.89858         6.54242
   S        3.04475         3.42980         6.63219
   C        1.87631         2.58452         5.70357
   C        0.78959         3.38923         5.35787
   C        0.91608         4.69159         5.82578
   C        1.71723         1.31011         5.12476
   C        0.51410         1.29342         4.39784
   C       -0.20679         2.61568         4.52928
   S        2.56569        -0.16540         5.02351
   C        1.30274        -0.83281         3.97246
   C        0.28131         0.09543         3.76010
   O        5.71782         7.22960         8.75645
   C       -0.46017         3.27123         3.16323
   C        0.81287         3.42076         2.33827
   C        7.16682        11.68619        11.50112
   C        8.17012        12.54545        12.25826
   O        0.55344         7.27883         6.75821
   C       -0.23875         8.45353         6.76097
   C        0.10053         9.39834         5.61239
   C        6.45497         6.02049         8.80864
   C        7.77524         6.32268         9.50086
   C        8.07761        12.13999         9.16140
   C        7.74758        12.47165         7.71066
   C       -1.52386         2.36602         5.29794
   C       -2.29309         3.62378         5.67896
   C       -0.77641        -7.36877        -1.13368
   C       -1.76265        -7.54126        -2.06437
   C       -2.73422        -6.56450        -2.32018
   C       -2.69679        -5.39424        -1.61415
   C        1.88366        23.45433        10.13644
   C        0.61312        23.86827         9.84701
   C       -0.39365        22.98026         9.44656
   C       -0.09786        21.64926         9.34235
   F        0.30287        25.17467         9.94587
   F       -1.81559        -8.68701        -2.76994
   H       -2.37859        -3.18178        -0.07924
   H        1.01014        -6.74541         0.73148
   H        2.41892        -2.57981         3.92397
   H        0.76032        19.08048         9.23231
   H        4.25312        22.35335        10.62698
   H        6.62901        17.36306        10.66957
   H        7.49278        15.16124        10.64616
   H        6.31439         9.22412         9.29464
   H        4.42767         5.18900         7.64026
   H        1.88142         9.35260         7.80218
   H        0.21193         5.47789         5.64074
   H       -0.57013        -0.13342         3.14618
   H       -1.17856         2.65932         2.61489
   H       -0.89808         4.25719         3.32232
   H        1.25612         2.44949         2.13161
   H        0.58694         3.90149         1.38954
   H        1.54501         4.02898         2.86536
   H        6.23215        11.65276        12.06673
   H        7.54597        10.66451        11.42746
   H        7.79810        13.55878        12.37920
   H        8.33129        12.12417        13.24798
   H        9.12834        12.58049        11.74756
   H       -1.26089         8.08157         6.64252
   H       -0.17170         8.96572         7.72744
   H       -0.00276         8.87842         4.66315
   H       -0.57993        10.24485         5.62648
   H        1.12011         9.76598         5.69252
   H        5.89592         5.26276         9.37316
   H        6.63726         5.64436         7.79322
   H        7.59204         6.70681        10.50099
   H        8.36801         5.41574         9.57246
   H        8.33221         7.06597         8.93636
   H        8.80499        12.86189         9.53356
   H        8.52396        11.14493         9.21513
   H        7.29845        13.45937         7.63483
   H        8.65422        12.46095         7.11057
   H        7.05257        11.74550         7.29519
   H       -2.15394         1.72610         4.67711
   H       -1.28220         1.81121         6.20816
   H       -2.58877         4.18910         4.79945
   H       -3.19549         3.34377         6.21781
   H       -1.69639         4.26197         6.32504
   H       -0.04490        -8.14307        -0.96251
   H       -3.48843        -6.75679        -3.06676
   H       -3.43432        -4.62626        -1.79342
   H        2.63423        24.16680        10.44115
   H       -1.37773        23.36481         9.23012
   H       -0.85691        20.94519         9.03602
*
