# ORCA input file
# SCF done       -247.541172974731          0.000320440662
! wb97x-d3 def2-SVP def2/J RIJCOSX Grid4 TightSCF
%maxcore 5000
%tddft
    Mode sTDA
    Ethresh 5.0
    maxcore 5000
end

%pal
  nprocs 6
  end
* xyz -1 2
   C        2.47899        -2.10314        -0.72260
   C        2.56493        -1.59145         0.59336
   C        1.66893        -0.63881         1.07174
   C        0.65852        -0.24608         0.22627
   C        0.52611        -0.81800        -1.06162
   C        1.44960        -1.73467        -1.55682
   C        3.59355        -3.10277        -0.99046
   C        4.24231        -3.17855         0.36925
   C        3.64847        -2.26956         1.23132
   C        5.26658        -3.90838         0.96231
   C        5.44092        -3.57499         2.29400
   S        4.33544        -2.30781         2.80105
   C       -0.46205         0.74557         0.49579
   C       -1.32235         0.54136        -0.72579
   C       -0.69098        -0.31346        -1.61487
   C       -2.55883         0.99015        -1.17827
   C       -2.88298         0.46518        -2.41536
   S       -1.61184        -0.57438        -3.03804
   C        6.33839        -4.17613         3.22523
   C       -4.10743         0.63560        -3.13037
   C       -1.13842         0.41747         1.80918
   C        0.00615         2.19201         0.45949
   C        2.98325        -4.40465        -1.46631
   C        4.64317        -2.58835        -1.96017
   C        6.35790        -3.84784         4.57960
   C        7.17968        -4.46694         5.51197
   C        8.07874        -5.47678         5.16880
   C        8.10783        -5.80951         3.78819
   C        7.25329        -5.18461         2.83499
   C       -4.32556         0.10488        -4.39897
   C       -5.54524         0.19518        -5.05817
   C       -6.66759         0.78924        -4.48810
   C       -6.45904         1.40418        -3.23491
   C       -5.20364         1.32866        -2.56320
   N        8.84710        -6.71232         3.13030
   N        8.44890        -6.61552         1.89158
   N        7.51513        -5.74046         1.64233
   N       -7.27507         2.14541        -2.47493
   N       -6.55616         2.44734        -1.43325
   N       -5.33112         2.00407        -1.41085
   C        8.95154        -6.20556         6.02607
   C        9.11496        -6.24515         7.37675
   C       -7.93607         0.78473        -5.15489
   C       -9.15333         0.73747        -4.56436
   C       -7.12803         3.14266        -0.31710
   C        9.03885        -7.40369         0.84764
   C       -9.48369         0.41989        -3.17385
   N      -10.85539         0.52809        -2.97771
   C      -11.62798         0.81714        -4.05228
   S      -10.63091         0.96963        -5.48941
   C        8.44100        -5.56400         8.47838
   N        8.93789        -6.00888         9.69594
   C        9.92344        -6.93940         9.68061
   S       10.32808        -7.35058         8.02792
   C        8.37867        -5.50744        10.93626
   O        7.56871        -4.72132         8.42171
   S       10.64412        -7.58356        10.99719
   C        2.71969        -4.59413        -2.81746
   C        2.10937        -5.75278        -3.25778
   C        1.74208        -6.74999        -2.36351
   C        2.00501        -6.55471        -1.01461
   C        2.61179        -5.39501        -0.56824
   C        4.69179        -1.26196        -2.36207
   C        5.69221        -0.82434        -3.21182
   C        6.66897        -1.69411        -3.67515
   C        6.62218        -3.01932        -3.26005
   C        5.62512        -3.46178        -2.41336
   C       -0.61771         0.91468         2.99797
   C       -1.20091         0.59369         4.20845
   C       -2.31641        -0.23198         4.26586
   C       -2.82921        -0.73052         3.07629
   C       -2.24541        -0.41715         1.86230
   C       -0.87908         3.19362         0.84081
   C       -0.50979         4.52229         0.76913
   C        0.74828         4.88894         0.30726
   C        1.62696         3.88527        -0.07474
   C        1.26199         2.55244        -0.00564
   O       -8.73762         0.03833        -2.29981
   C      -11.41668         0.33540        -1.65579
   C       -2.98084        -0.53226         5.57859
   C        1.16275         6.33173         0.26523
   C        7.77956        -1.20348        -4.55880
   C        1.12111        -8.02728        -2.85123
   C        2.20392        -9.05374        -3.18998
   C        8.96166        -0.72477        -3.71341
   C       -4.02668         0.53615         5.90397
   C        1.82485         6.73937         1.58295
   S      -13.25181         0.98230        -4.03798
   C        7.29888        -6.44124        11.46897
   C      -11.60492         1.66930        -0.94372
   C       -7.69251         2.12975         0.67575
   C       10.09755        -6.59604         0.10311
   H        1.76149        -0.24693         2.07291
   H        1.34190        -2.14762        -2.54803
   H        5.86029        -4.66640         0.48690
   H       -3.22567         1.64537        -0.65019
   H        5.68240        -3.07833         4.92529
   H        7.11028        -4.15978         6.54161
   H       -3.51220        -0.41691        -4.88272
   H       -5.64305        -0.26592        -6.03041
   H        9.59674        -6.88123         5.47375
   H       -7.90810         0.82271        -6.23768
   H       -6.34444         3.74581         0.14559
   H       -7.91998         3.78611        -0.70505
   H        9.48237        -8.28230         1.31884
   H        8.24223        -7.70547         0.16394
   H        9.19196        -5.41217        11.65919
   H        7.95684        -4.52494        10.71191
   H        3.00217        -3.83269        -3.53051
   H        1.91093        -5.88297        -4.31234
   H        1.72656        -7.31757        -0.30124
   H        2.79803        -5.26208         0.48755
   H        3.94398        -0.56390        -2.01548
   H        5.71104         0.21143        -3.52039
   H        7.37481        -3.71306        -3.60760
   H        5.59844        -4.49729        -2.10664
   H        0.24305         1.56779         2.97381
   H       -0.78294         0.98941         5.12335
   H       -3.69570        -1.37633         3.09826
   H       -2.65900        -0.82256         0.95050
   H       -1.86145         2.92611         1.20177
   H       -1.21040         5.28810         1.07079
   H        2.61070         4.14785        -0.43766
   H        1.96327         1.79184        -0.31608
   H      -12.37428        -0.17930        -1.76198
   H      -10.71064        -0.29640        -1.11092
   H       -3.46612        -1.50924         5.53397
   H       -2.23359        -0.55758         6.37425
   H        1.86647         6.49051        -0.55449
   H        0.28857         6.96260         0.09182
   H        8.11142        -2.00750        -5.21893
   H        7.42306        -0.37795        -5.17813
   H        0.46448        -8.43757        -2.08144
   H        0.52163        -7.83017        -3.74226
   H        2.80228        -9.27623        -2.30919
   H        1.75513        -9.97746        -3.54776
   H        2.86394        -8.66566        -3.96276
   H        9.34353        -1.53896        -3.10144
   H        9.76478        -0.36251        -4.35087
   H        8.65133         0.08152        -3.05263
   H       -4.79013         0.56547         5.12957
   H       -4.50594         0.32332         6.85672
   H       -3.55962         1.51700         5.96107
   H        2.70766         6.13111         1.76660
   H        2.12334         7.78471         1.55192
   H        1.13483         6.59930         2.41207
   H        7.71768        -7.42359        11.67415
   H        6.89052        -6.03722        12.39056
   H        6.49509        -6.54108        10.74311
   H      -12.32658         2.28161        -1.47882
   H      -11.97165         1.49750         0.06411
   H      -10.65869         2.20293        -0.89016
   H       -6.88705         1.53865         1.10449
   H       -8.22097         2.64142         1.47510
   H       -8.37815         1.45814         0.16416
   H       10.89159        -6.29796         0.78336
   H       10.52656        -7.19626        -0.69401
   H        9.65057        -5.70369        -0.32850
*
