# ORCA input file
# SCF done       -249.213198218157          0.000347772973
! wb97x-d3 def2-SVP def2/J RIJCOSX Grid4 TightSCF
%maxcore 5000
%tddft
    Mode sTDA
    Ethresh 5.0
    maxcore 5000
end

%pal
  nprocs 6
  end
* xyz -1 2
   C        2.70337        -1.74258        -0.38489
   C        2.82260        -1.03104         0.83211
   C        1.90133        -0.05656         1.20667
   C        0.84807         0.17485         0.35329
   C        0.69826        -0.57693        -0.83572
   C        1.63195        -1.53497        -1.22162
   C        3.85361        -2.72259        -0.55615
   C        4.58578        -2.53590         0.74892
   C        3.98285        -1.53640         1.49593
   C        5.70674        -3.08186         1.36529
   C        5.95498        -2.50798         2.59909
   S        4.78607        -1.25527         2.98448
   C       -0.29236         1.16769         0.51569
   C       -1.14557         0.82168        -0.67891
   C       -0.52524        -0.15496        -1.44174
   C       -2.35761         1.24739        -1.21214
   C       -2.67518         0.58207        -2.38252
   S       -1.43381        -0.57526        -2.83384
   C        6.99132        -2.85106         3.51834
   C       -3.85347         0.73875        -3.17245
   C       -0.96522         0.93578         1.85279
   C        0.14132         2.61430         0.35232
   C        3.29061        -4.11318        -0.76538
   C        4.81438        -2.33856        -1.66809
   C        7.14742        -2.23003         4.75542
   C        8.13474        -2.57104         5.67202
   C        9.06890        -3.57714         5.43061
   C        8.94197        -4.22267         4.17213
   C        7.92893        -3.87362         3.23328
   C       -4.09790         0.00293        -4.32972
   C       -5.24939         0.13008        -5.09747
   C       -6.27418         1.01778        -4.77350
   C       -6.05099         1.78802        -3.60155
   C       -4.87133         1.65608        -2.81392
   N        9.66628        -5.21020         3.62903
   N        9.11431        -5.41345         2.46473
   N        8.08811        -4.66784         2.16357
   N       -6.81770         2.71959        -3.01908
   N       -6.13132         3.09747        -1.97625
   N       -4.97942         2.51601        -1.78964
   C       10.11770        -4.03386         6.28255
   C       10.52829        -3.69295         7.53226
   C       -7.50254         1.24168        -5.46308
   C       -8.07259         0.69444        -6.56851
   C       -6.64042         4.07060        -1.05286
   C        9.58409        -6.44017         1.57930
   C       -7.63896        -0.35535        -7.48818
   N       -8.60017        -0.56820        -8.46545
   C       -9.74465         0.17534        -8.44201
   S       -9.66148         1.29692        -7.06377
   C       10.04348        -2.70971         8.49870
   N       10.80804        -2.75215         9.65537
   C       11.83648        -3.64597         9.73712
   S       11.91151        -4.56171         8.21392
   C       10.50016        -1.88957        10.78408
   O        9.12130        -1.93116         8.37902
   O       12.57909        -3.79744        10.66471
   C        2.94054        -4.53330        -2.04299
   C        2.38149        -5.78056        -2.24337
   C        2.15321        -6.63982        -1.17620
   C        2.50075        -6.21402         0.09837
   C        3.05654        -4.96453         0.30484
   C        5.79514        -3.24563        -2.05223
   C        6.71278        -2.91586        -3.03002
   C        6.68316        -1.67011        -3.64434
   C        5.70925        -0.76414        -3.24890
   C        4.78791        -1.08903        -2.26923
   C       -0.47524         1.55988         2.99357
   C       -1.05070         1.32106         4.22673
   C       -2.12548         0.45095         4.35596
   C       -2.60752        -0.17462         3.21434
   C       -2.03274         0.05825         1.97831
   C       -0.76259         3.62607         0.65534
   C       -0.42013         4.95144         0.47423
   C        0.82910         5.30393        -0.02161
   C        1.72465         4.28995        -0.32973
   C        1.38617         2.96023        -0.15163
   O       -6.60430        -0.98775        -7.47109
   C       -8.41764        -1.59495        -9.47801
   C       -2.78100         0.23254         5.68925
   C        1.21659         6.74668        -0.17405
   C        7.64709        -1.33122        -4.74468
   C        1.59140        -8.01358        -1.40469
   C        2.71712        -9.01333        -1.67728
   C        7.05404        -1.70302        -6.10533
   C       -3.90513         1.24786         5.90510
   C        1.84451         7.27183         1.11862
   O      -10.65788         0.10554        -9.21402
   C        9.61699        -2.60563        11.79760
   C       -9.05752        -2.90866        -9.04809
   C       -7.29704         3.38071         0.13915
   C        8.76648        -7.71548         1.76152
   H        2.01584         0.48486         2.13312
   H        1.50690        -2.08956        -2.13882
   H        6.32602        -3.86522         0.97056
   H       -3.00621         1.99223        -0.79086
   H        6.45692        -1.44123         5.01830
   H        8.17402        -2.03754         6.60645
   H       -3.34988        -0.71052        -4.64530
   H       -5.35197        -0.48540        -5.97501
   H       10.69824        -4.82628         5.82126
   H       -8.10001         2.01201        -4.98624
   H       -5.80256         4.68740        -0.72070
   H       -7.36583         4.68059        -1.59359
   H        9.48778        -6.06926         0.55668
   H       10.63390        -6.61815         1.81819
   H       11.44607        -1.59397        11.24324
   H        9.98816        -1.01415        10.37800
   H        3.11796        -3.88360        -2.88808
   H        2.11554        -6.09097        -3.24398
   H        2.32997        -6.86616         0.94336
   H        3.31174        -4.65242         1.30708
   H        5.83072        -4.21978        -1.58653
   H        7.46612        -3.63488        -3.31974
   H        5.67107         0.21243        -3.71059
   H        4.04322        -0.36348        -1.97648
   H        0.35529         2.24665         2.91390
   H       -0.65729         1.81625         5.10328
   H       -3.44145        -0.85789         3.29280
   H       -2.42081        -0.44596         1.10526
   H       -1.73752         3.36976         1.04385
   H       -1.13415         5.72564         0.71761
   H        2.70110         4.54121        -0.71927
   H        2.10013         2.19062        -0.40574
   H       -8.87262        -1.23223       -10.40225
   H       -7.34024        -1.71757        -9.61048
   H       -3.19385        -0.77708         5.73830
   H       -2.04261         0.33904         6.48644
   H        1.93330         6.85317        -0.99084
   H        0.33424         7.34371        -0.41369
   H        7.86733        -0.26187        -4.72854
   H        8.58257        -1.87513        -4.59896
   H        1.02931        -8.33520        -0.52566
   H        0.91098        -7.99731        -2.25846
   H        3.39818        -9.05585        -0.83006
   H        2.31108       -10.00783        -1.84701
   H        3.28346        -8.71429        -2.55658
   H        6.12701        -1.15979        -6.27458
   H        7.75040        -1.45982        -6.90450
   H        6.83763        -2.76839        -6.14480
   H       -4.65863         1.14861         5.12677
   H       -4.38028         1.09132         6.87073
   H       -3.51065         2.26109         5.87192
   H        2.73461         6.69796         1.36666
   H        2.12414         8.31711         1.00924
   H        1.14088         7.18459         1.94358
   H       10.12770        -3.48374        12.18601
   H        9.39326        -1.93715        12.62400
   H        8.68298        -2.91288        11.33250
   H      -10.12611        -2.77391        -8.89693
   H       -8.90539        -3.65883        -9.81878
   H       -8.60801        -3.26078        -8.12236
   H       -6.57369         2.75083         0.65138
   H       -7.67165         4.12459         0.83631
   H       -8.12751         2.76327        -0.19437
   H        7.71809        -7.52149         1.54788
   H        9.12667        -8.48504         1.08492
   H        8.85654        -8.07673         2.78305
*
