150
 SCF done       -259.468635314910          0.000659871524
C          -2.07933756788337   -0.54339137388468    0.00933740065004
C          -2.25057229339473   -0.49032525132166    1.38659340933544
C          -3.29922557227686   -0.02648860408865   -0.71832588429802
C          -4.16843354130256    0.36707950301709    0.44051804659820
C          -3.52588175857297    0.07788920088398    1.64199895551543
C          -3.04752173270857    1.18221320761618   -1.60374004838165
C          -3.84065038405828   -1.17327960069649   -1.55799530075694
C          -5.40800564889574    0.96116947759143    0.64768900822137
C          -5.70142306671888    1.10077212803054    2.02093163014958
S          -4.42669819923900    0.50077887345746    3.05376764317287
C          -5.03340693887136   -1.81438360912050   -1.26466276359385
C          -5.47598125252750   -2.85574424146828   -2.06119409375534
C          -4.73599136341810   -3.28735604953818   -3.15269638002163
C          -3.53650436570442   -2.64414045297240   -3.43441534151811
C          -3.09207623013758   -1.59977387716277   -2.64848931740927
C          -1.86781385759903    1.90840171894163   -1.54739717867498
C          -1.69289840490152    3.01235937660252   -2.36311005814360
C          -2.69056047362458    3.42236861639792   -3.23641576068785
C          -3.87434564431641    2.69568958481758   -3.27656648035331
C          -4.05325276955734    1.58780054696647   -2.47229973285506
C          -8.87460363210319    2.59007777317564    1.08703111097632
C          -9.69143131969668    2.97211744430859    0.04791922794153
C         -10.99583600022100    3.58370603583392    0.19853031693969
C         -11.51044471806420    3.85071997730368   -1.14484506557545
C         -10.56259003730161    3.41633121194862   -2.08708345706388
C          -9.39481210413790    2.84937329427964   -1.38127206893173
O          -8.39892814464045    2.38294624789883   -1.90385337395054
C         -11.65876808727913    3.87133887488625    1.36517603818538
C         -12.93509050119557    4.47012070868689    1.42280039801854
N         -13.96940595275971    4.95277073128193    1.54655077466159
C         -11.18773452963499    3.61892116290960    2.67024160110895
N         -10.88264089919767    3.44808212413219    3.76512446368401
C         -12.69466204089131    4.42212112877623   -1.57914304179623
C         -12.91099595466167    4.55080711422392   -2.94747299614407
C         -11.96067173568471    4.11591878475646   -3.87665647686098
C         -10.77164410017780    3.54113102208151   -3.44453696662163
Cl        -14.37713372376854    5.25940732668483   -3.49393629445250
Cl        -12.26030754510067    4.29154492932610   -5.55863388716204
S          -6.68078792233641    1.56143973750108   -0.34323945886497
C          -7.60963206199270    1.99796244504739    1.09479252388853
C          -6.92983710040655    1.68235488744625    2.28826482788559
S          -1.19483785603888   -1.21724812933342    2.58900619794351
C           0.29201443163913   -1.36273273707507   -0.42535768320930
C          -0.87491731357362   -0.99161074641207   -0.45944628569963
C           8.45119125892518   -4.26035577246025    1.62732926920385
C           9.23720801633747   -4.87796529370440    0.68187922193707
C          10.57022070948855   -5.39358076960906    0.91775544827047
C          11.04266005290976   -5.97439374351728   -0.33938761431190
C          10.04060075622258   -5.82188686065597   -1.31270623240979
C           8.87951070053279   -5.13008434294372   -0.71600767455063
C          12.23330756054085   -6.59653322290137   -0.67526709545061
C          12.40182692461513   -7.05591538624516   -1.97770125489247
C          11.39767219951488   -6.89954254716065   -2.93839071340352
C          10.20183821281172   -6.27529788138253   -2.60509807142480
O           7.84763756305097   -4.83682140430739   -1.29189390097570
C          11.28934516233699   -5.35886940858074    2.08602637890942
C          12.59070468693370   -5.88483035877253    2.22959503181559
C          10.85797673861896   -4.80370985497579    3.30853601693633
N          10.58961833488574   -4.37506084672095    4.34064803920247
N          13.64825330700005   -6.28792726595309    2.42127936580733
Cl         11.63953401739116   -7.47936561628146   -4.53682223977768
Cl         13.87624359830597   -7.82806537020019   -2.40223592097212
C           1.51820295233895   -1.66757543877091    0.09837359835763
C           1.73458951895091   -1.37670275844493    1.43923246058099
S           0.70420711811731   -0.39295745621501    2.46815309396211
C           2.73256858768926   -2.31357278192353   -0.52885188422507
C           3.65126778507355   -2.38674999718168    0.65573721701013
C           3.03629373268988   -1.83302708099502    1.77573844534618
C           2.50414410235272   -3.71262091384460   -1.07398678280912
C           3.19951217054764   -1.38915894385424   -1.64212040660427
C           1.36866967675964   -4.44752401747306   -0.76900505465849
C           1.22122008213610   -5.73254061692807   -1.26056904360521
C           2.20393671271529   -6.31402397678122   -2.04955560933865
C           3.34201811686917   -5.57253943254369   -2.34283592841847
C           3.49295790413986   -4.28660408318275   -1.86326061207927
C           4.37411554148805   -0.65855872039854   -1.56131002314021
C           4.74265849081748    0.17985650572505   -2.59847757632745
C           3.94523060414315    0.31840763043823   -3.72565542675676
C           2.76609019340035   -0.41395562554539   -3.79571513433393
C           2.39565313037436   -1.25833649865069   -2.76817967520299
C           2.01927779167893   -7.69214457276703   -2.61592832800912
C           1.31999396718244   -7.61922421488966   -3.97498939678871
C           4.37161761704398    1.19739170447918   -4.86541872802364
C           5.20555308410933    0.39864221825772   -5.86939844184416
C           4.91612252060307   -2.88124167260168    0.95142402213217
C           5.25788721197225   -2.67715677372201    2.30516609233993
S           3.99486791911717   -1.88053699367261    3.21231565371108
S           6.17488095649997   -3.67029620566290    0.08348167109871
C           7.16667299591736   -3.71798800711046    1.54477572515746
C           6.51850165241286   -3.13488510975769    2.65221043870490
C          -2.47526003054176    4.59033662264174   -4.15486595085607
C          -1.84826826933465    4.12293715274914   -5.47016399608775
C          -5.24317719087356   -4.38687001725001   -4.04002901603102
C          -6.07018167822572   -3.80470686253744   -5.18833972317506
C          -7.45431412692991    1.87094018192963    3.67415225265538
C          -8.35783033457197    0.70171506709519    4.07660731492405
C           7.05869182773228   -3.05502112205197    4.04261389498915
C           6.82087543608260   -4.36605336444154    4.79735870688227
H          -5.62763321414425   -1.50304913605205   -0.41896413963117
H          -6.41210692538943   -3.34116996109033   -1.82538257778976
H          -2.94353703735285   -2.96651495597374   -4.27835385868997
H          -2.15942846941475   -1.10596957123402   -2.88217310878056
H          -1.07603717889155    1.61656326228724   -0.87247428737370
H          -0.76505921969624    3.56431898918742   -2.31369901250179
H          -4.66831100471902    3.00039919285033   -3.94234056568056
H          -4.97870202271818    1.03310857333993   -2.51961486245683
H          -9.26440616612493    2.77512674742493    2.07850886777304
H         -13.45102323383154    4.76966728391551   -0.89502667781677
H         -10.02979646347450    3.20130572518971   -4.14973881374522
H           8.88820573584943   -4.17346501559848    2.61261665547798
H          13.03078681622362   -6.73572807761081    0.03577105596354
H           9.41893998598495   -6.14673965381752   -3.33561253188485
H           0.59160978801564   -4.02268080441270   -0.14973297655950
H           0.32866403963431   -6.29205446425620   -1.01908074887685
H           4.12331310656499   -6.00659170733154   -2.94916702989739
H           4.38390318089266   -3.72478721994601   -2.10194551196718
H           5.01079315033248   -0.74191780356167   -0.69354376871409
H           5.66478179470874    0.73833886838894   -2.52516446191569
H           2.12978780743839   -0.31934439713001   -4.66402746485042
H           1.47747340417985   -1.82433062872351   -2.83788469693094
H           2.99072959564934   -8.17519345911779   -2.73651752740788
H           1.41805545421020   -8.29666077193024   -1.93390748020518
H           1.91010663891772   -7.02846941149876   -4.67206204635790
H           1.18753332214474   -8.61595692920320   -4.38905375178551
H           0.34278285875505   -7.15234720603227   -3.87271271211239
H           3.49215492693682    1.60291532477205   -5.36972729677669
H           4.96541332875188    2.03225893210001   -4.48804991148717
H           4.62577360207568   -0.43144777401079   -6.26685178704962
H           5.51641433702636    1.03333571364074   -6.69585914022115
H           6.09319081203302   -0.00475363436503   -5.38743833700698
H          -3.42960833738360    5.07709675073350   -4.36413269454622
H          -1.81511478416662    5.31925902044968   -3.68059777338477
H          -2.49839172076660    3.40430621321254   -5.96420311882644
H          -1.69109007992940    4.96646667068104   -6.13818247935796
H          -0.88950305666445    3.64439524633981   -5.28260512890760
H          -4.40209488282459   -4.94891468231123   -4.45109657996731
H          -5.86411704800968   -5.07373707835567   -3.46161712346289
H          -5.46380904787390   -3.12791942176706   -5.78616644378938
H          -6.44090268506715   -4.59964296200071   -5.83112028196849
H          -6.91929619985887   -3.24808069976060   -4.79832892645273
H          -6.60457661168054    1.91608529269967    4.35853546898485
H          -8.01136208375274    2.80469493975916    3.76115291010682
H          -7.80738090306833   -0.23531869627612    4.03280047188341
H          -8.71849366829566    0.84852424439942    5.09041144591767
H          -9.21648476835997    0.63239166886312    3.41314876969997
H           8.12616650824141   -2.82994802876910    4.03700262931065
H           6.54264810551741   -2.24604557851458    4.56399260823369
H           7.31949406414543   -5.19379450283793    4.29882021785135
H           7.21459112292626   -4.28511629257594    5.80634254983800
H           5.75683564989875   -4.58420653839357    4.85267389939820
