146
 SCF done       -239.671656579350          0.000718346880
C           4.61484317620732   -1.62011176303973   -2.78068900557824
O           3.82562286323021   -1.21925742103777   -3.61689355772926
C           5.03729333866646   -3.01308928767367   -2.57030536092484
C           4.62955014885502   -4.15881458623133   -3.21502455779767
C           5.15406101418390   -5.39867839736120   -2.84174419084464
C           6.11063802613736   -5.45440800158689   -1.79572130597945
C           6.51464626541793   -4.28423249722718   -1.15786679733506
C           5.98475494387821   -3.06133278255501   -1.53642348320421
C           6.22021236654253   -1.71342501399261   -1.04009150437000
C           7.12628624158014   -1.37299980990940   -0.06590751555852
C           7.38692888672873   -0.07094818069620    0.40645615918940
N           7.66664662738949    0.95315884264349    0.84678583897125
C           7.94708345263046   -2.30684197005039    0.59767236107536
N           8.63731090533523   -3.02456389218300    1.17098077016589
C           5.33898643822370   -0.82437806303387   -1.77639295265846
C           5.16363687753424    0.51033823366917   -1.52601879488225
C           4.30485200010350    1.44603531270295   -2.12645262684127
C           4.18998995512239    2.75022394246511   -1.64133024394418
C           3.25311944655925    3.48807568041757   -2.33851149053561
C           2.64731937819238    2.77032525751104   -3.39158277751928
S           3.23794899312887    1.15725917939925   -3.49570102327972
C           1.68632562667001    3.53295304341581   -4.05317119180206
C           0.69594323722350    3.33477349633542   -5.16855361893222
C           1.34220349204250    3.20035412070895   -6.53614008523300
C           0.61731613934994    2.66442492662166   -7.59300573142467
C           1.17640193130033    2.57686257239512   -8.85326625749814
C           2.47031605698761    3.02150569498655   -9.09285355179946
C           3.05933494416668    2.96431912833759  -10.47281218743948
C           2.72946953024785    4.24188946729920  -11.24752454361703
C           3.18651713447984    3.56421920934552   -8.03514568583761
C           2.63059784506146    3.65704665266090   -6.77239645909523
C          -0.15167616543456    2.12275314305486   -4.82886136382676
C          -1.39717991917953    2.23846874372349   -4.23017167861485
C          -2.11592696735783    1.10587329058817   -3.89055570739655
C          -1.60327955206494   -0.16283273787095   -4.12177886366246
C          -2.40553349379534   -1.38943238347838   -3.79547341012857
C          -3.23102197520145   -1.82283317451922   -5.00883483460229
C          -0.34772520771533   -0.27147796766898   -4.70683873232147
C           0.37030462885724    0.85466562573683   -5.05659047463104
C          -0.04817782276526    4.65814303404484   -5.12756476315394
C           0.49344282590013    5.51345878390195   -4.13788045151918
C           1.54920169674851    4.79372738706088   -3.49770883556789
S           2.62120290704875    5.10568645097121   -2.17337126803350
C          -0.03065128778634    6.77979702128652   -3.89092259362099
C          -1.12289975444353    7.16356669640166   -4.63320119133861
C          -1.92102992490779    8.45225290676958   -4.53519182377346
C          -2.63740570523427    8.64183714078128   -3.20967394216423
C          -2.79929234204760    7.60430228895171   -2.30402903768753
C          -3.50195137778109    7.80657656924076   -1.12915002178143
C          -4.07224711954416    9.03797997494666   -0.83969188047488
C          -4.79223394284094    9.27024771619319    0.45733669283638
C          -3.83239818811647    9.84099796205690    1.50321313805980
C          -3.92058418913542   10.06845068861390   -1.75950139541739
C          -3.21389878122725    9.87548450086475   -2.92964555337253
C          -1.00033108033295    9.61839674858412   -4.84361153986260
C          -0.85576917724495   10.09843356378908   -6.13704408597031
C           0.01412847355346   11.13933773049431   -6.40514052152335
C           0.76878663078789   11.71780812478954   -5.39418854435854
C           1.67555729950455   12.88014208714707   -5.67871731052563
C           0.92278409777764   14.20009654316198   -5.49869306576074
C           0.62823190854312   11.22580095750551   -4.10282810697951
C          -0.24188170239388   10.18838563244569   -3.82894687255642
C          -2.97134092140565    8.21601656215459   -5.58722458915730
C          -2.78473927846831    6.98435859140858   -6.19275367091161
C          -1.65323280018009    6.31484056666437   -5.63422323115349
C          -1.11206164076620    5.05965650748522   -5.90020769475049
S          -3.97598298116216    6.59021700427889   -7.38562670199070
C          -4.77046496651450    8.10752332903718   -7.05338255161916
C          -4.10870256221118    8.86546190499039   -6.06204324893737
S          -4.92894843359595   10.33986965255768   -5.72454531208111
C          -6.16640905955451    9.93904560698398   -6.91201088764270
C          -5.91470035457614    8.71159120779226   -7.53196543587004
C          -7.30321086338799   10.69741385466816   -7.22443425068750
C          -7.76062351913398   11.87920012276203   -6.69902203660289
C          -8.98630942772612   12.55478120901720   -7.07762101460338
C          -9.87495122624335   12.18852824132288   -8.05547574661206
C         -11.05632369692507   12.89722969180583   -8.36003752571551
N         -12.03426710725226   13.41664361794543   -8.66302301132542
C          -9.75667902928774   11.06992853928066   -8.90675802715875
N          -9.74131806246259   10.18882790774284   -9.64419217522207
C          -9.11908609790608   13.73332802603011   -6.21994266615950
C         -10.10002637726174   14.70892855711107   -6.13957452933996
C          -9.94908657386033   15.72627164969467   -5.20572635784983
C          -8.84733954679392   15.78213704396997   -4.36484498570680
C          -7.85884026828850   14.81048539344963   -4.43620740716021
C          -8.00724029764220   13.79715130345090   -5.36206543532461
C          -7.11496332354116   12.65501389223613   -5.63217686415478
O          -6.05934866323237   12.41769973523313   -5.07239325807332
O           4.66033235763803   -6.43411490660274   -3.55510981385941
O           6.60417298942237   -6.67614536042677   -1.44996853539865
C           7.54666294661669   -6.76840803053606   -0.40455014301706
C           5.05000825885961   -7.77237791192275   -3.32976802575558
H           3.90294885369810   -4.12263877987768   -4.01058428555862
H           7.23918479176721   -4.33637560765930   -0.36508500402278
H           5.74407642963434    0.93392032618807   -0.71497429441245
H           4.76370230155302    3.11269713884534   -0.80733950950784
H          -0.38552130535918    2.29944815098569   -7.42484984290733
H           0.60026855182932    2.15217660785128   -9.66310088969195
H           4.14344162602297    2.85238115240731  -10.40851358407314
H           2.65805570292416    2.10350993574984  -11.01136958491786
H           3.13293154961613    5.11104174887011  -10.73270565569798
H           3.15453889039132    4.20158857194479  -12.24773251993769
H           1.65209393966319    4.36541498987844  -11.33208085246366
H           4.19472445044383    3.91737496757981   -8.19895572939144
H           3.20915244934770    4.08557233654212   -5.96703330167926
H          -1.81364625289243    3.21475211742338   -4.02848651000201
H          -3.08886039657444    1.21318576221401   -3.43187156688428
H          -1.73631424542953   -2.20226279412248   -3.50670409892979
H          -3.07596289806122   -1.18350975364222   -2.95860039598690
H          -2.57777325571674   -2.05005485490493   -5.84826046623137
H          -3.81742380069148   -2.70833415008740   -4.77477569707520
H          -3.90868517176419   -1.02652716821859   -5.30885900119936
H           0.07854836488101   -1.24758267234797   -4.88541169097796
H           1.34315876440210    0.74863746465495   -5.51309583270566
H           0.39411915582843    7.41456752546946   -3.12881719720156
H          -2.37439646101160    6.63268022928927   -2.51022755894451
H          -3.61211686554297    6.98947846909980   -0.43018010728382
H          -5.61425418154725    9.97210872485675    0.30289581479867
H          -5.20871485076734    8.33049918525046    0.82514967807045
H          -3.41602300888290   10.78474252228739    1.15853254734414
H          -4.35071517948636   10.01230705986034    2.44383438959236
H          -3.01148239636459    9.14945424331293    1.67951986346404
H          -4.36554976358368   11.03270099972014   -1.56213338655487
H          -3.10560502049376   10.68989246832479   -3.63054933759595
H          -1.42639065600198    9.66098676231247   -6.94333544240824
H           0.10899889298624   11.50508493149176   -7.41769756958698
H           2.53042017729681   12.85799038331768   -4.99967447004978
H           2.05008965170245   12.81600429684721   -6.70234517624005
H           0.55550629763015   14.29000526473314   -4.47884021399670
H           1.57675719431794   15.04334326120253   -5.70866809216596
H           0.07055131098272   14.24414738728724   -6.17315959671431
H           1.20856261132041   11.65993265120635   -3.30108088580958
H          -0.34369255498780    9.82710218464374   -2.81586754311315
H          -1.53459608707239    4.42660117745949   -6.66495886293592
H          -6.56110804465027    8.29911436864313   -8.28570737532104
H          -7.91127466308332   10.24236268859275   -7.99705400505301
H         -10.96772054511169   14.69296599269932   -6.77819406440178
H         -10.70978280716295   16.48932248326938   -5.13660456641454
H          -8.75982900665736   16.58728521965089   -3.65086861217917
H          -6.99275059737020   14.83292823926341   -3.79267114864656
H           8.46207575733747   -6.21658319513102   -0.63551564610355
H           7.13435989010620   -6.41043512109111    0.54303598599455
H           7.77599678624060   -7.82947998740762   -0.32060267405787
H           6.11697879118842   -7.91823730420816   -3.50630700561463
H           4.80064266110534   -8.10117889926000   -2.31940087826244
H           4.47876261988329   -8.35429134665588   -4.05276200031539
