148
 SCF done       -261.764419242361          0.000585844056
C           0.75659946891653   -0.54032460493120    1.44171721170804
C           2.00557397445929   -1.08831759576720    1.53962728436395
C           2.87911443306673   -1.71524342054731    0.57207431638340
C           3.93366139561218   -2.39590316103710    1.32594492223325
C           3.84491865973852   -2.01814121912825    2.67740570292842
C           2.68130785237656   -1.12143307241248    2.86021658722869
O           2.32734504610276   -0.56375750615457    3.87346813464902
C           2.91943822791427   -1.50159078151827   -0.78277805430297
C           3.93703348243269   -1.99812228309061   -1.62487688174262
N           4.74956478936658   -2.35293580376467   -2.35400267646782
C           2.05862121140838   -0.64821443393571   -1.50175795723586
N           1.44786366507793    0.07136049875347   -2.15582260659550
C           4.92808180689975   -3.26764511845462    0.91733765123558
C           5.82903124745814   -3.74045389510121    1.86557679237404
C           5.74539961769992   -3.34588451151383    3.20492686761675
C           4.74188700088653   -2.47810724595830    3.61908995371869
C          -0.17949201505075   -0.73224404049920    0.40977832731533
C          -0.27975387406514   -1.80333050063179   -0.47185301382874
C          -1.28910279774730   -1.62412763316994   -1.39900093099695
C          -1.95626749186564   -0.41178041974677   -1.25532599928685
S          -1.40945351835845    0.48271150968508    0.09382587378188
C          -1.74193770686380   -2.32289336213552   -2.65767636283686
C          -2.69561269270710   -1.28228360693890   -3.22676349016964
C          -2.84387288158999   -0.20518664764566   -2.35562937257469
C          -0.46898004169904   -2.55700589321065   -3.44492778458676
C          -2.54953571213071   -3.57670865005216   -2.35614300148420
C           0.38372093714669   -3.59009437436290   -3.06067492857763
C           1.62230587682044   -3.73441923177285   -3.64107734096797
C           2.05984405311240   -2.83132482812107   -4.61357266264157
C           1.20803277468103   -1.80422028658178   -5.00499933865473
C          -0.03882641873530   -1.67023586712788   -4.41762340347247
C          -3.47249287455998   -3.55021072387931   -1.31361556408818
C          -4.25194892761685   -4.64802171698620   -1.02897534742977
C          -4.13987668314360   -5.81534505199133   -1.78775125901907
C          -3.22748687998687   -5.84440983651770   -2.83598070198941
C          -2.44722243698362   -4.73334112763591   -3.11166594180936
O           3.30448712754152   -3.04452846761103   -5.09559598694407
C           3.93125538923472   -2.03347813691304   -5.86185981714326
C           5.40619638773578   -2.38810920046567   -5.95783723879413
O          -4.95137235195230   -6.83903724959052   -1.42382004374644
C          -4.89566352262858   -8.05407921529393   -2.14607598256184
C          -5.89802813676963   -9.00916853714357   -1.51781473258539
C          -3.39423713654297   -1.30918896708087   -4.45054322319558
C          -4.26327314063103   -0.20388009579371   -4.74439593949805
C          -4.40906846651061    0.85464838891406   -3.80521667301458
C          -3.71329000250469    0.86916385221376   -2.63779088559620
C          -3.25073314063255   -2.32517131725897   -5.39624732139268
C          -3.90805951590644   -2.28809092923324   -6.61870896859068
C          -4.76359237031643   -1.17393580928923   -6.91994185549737
C          -4.93126448182457   -0.17300600650464   -5.96182423309794
C          -3.73018098117761   -3.32756316293047   -7.57450820102179
C          -4.33251402940645   -3.28419239789914   -8.79136385835412
C          -5.14757513654974   -2.17452764745767   -9.10286468105167
C          -5.37685460627677   -1.14876426282161   -8.19013435949210
C          -5.82346577623769   -1.84736681666470  -10.31726673081641
C          -6.45782158920656   -0.60785066673724  -10.18862069946126
C          -6.25031615610755   -0.05806499143991   -8.79491123065172
C          -7.61285100708745    0.08266448549133   -8.14399111713465
C          -8.04334823217499   -0.76648633070512   -7.13157866065584
C          -9.30728980406283   -0.63732299009829   -6.59573963872376
C         -10.18714368362228    0.33907940440455   -7.06438939542815
C          -9.76522084913639    1.18345559999243   -8.08694734074702
C          -8.49472251640810    1.04625829255939   -8.61547892330196
C          -5.44636107062863    1.23430197731081   -8.82962989445437
C          -5.77521758369886    2.35275052354859   -8.07280676840710
C          -4.98195848501841    3.47941979761839   -8.10120111939979
C          -3.82699443046705    3.52538092232446   -8.88361267475990
C          -3.49415273999896    2.40759699112079   -9.64216996423441
C          -4.29825179977634    1.28298982098939   -9.60744112805128
S          -5.99788726276396   -2.55095910173810  -11.86160510513693
C          -6.94727116121570   -1.16341867774257  -12.38070953496550
C          -7.09195442181655   -0.22302680076568  -11.34602934531261
O         -11.40550588565088    0.37814652860551   -6.46912509362334
C         -12.35651624184061    1.32811299757901   -6.91067561081332
C         -13.62024354958635    1.13279131924980   -6.08828605308730
O          -3.13661902348134    4.69423685090547   -8.83827454182905
C          -1.88671392644105    4.80297491242790   -9.49007588312708
C          -0.76647440241602    4.09762650060284   -8.73119955096667
C          -7.50638605430689   -0.95747292938251  -13.64443434435349
C          -7.46671020720520   -1.72857528029239  -14.78326806980388
C          -8.08781399811817   -1.39518687476096  -16.04837237434696
C          -7.76264169028859   -2.46709670242388  -16.99035905282559
C          -6.98492060946801   -3.43160766173151  -16.32731331431697
C          -6.77411533002059   -3.01107909679726  -14.92656776966860
O          -6.14476243043688   -3.62169995265211  -14.08175668096079
C          -8.85215544968690   -0.29494228793621  -16.34406676925894
C          -9.42268314662541   -0.04573524325428  -17.61015747658436
N          -9.91108475936173    0.22215375404952  -18.61394921830549
C          -9.19222236930296    0.74222512062762  -15.45101439095316
N          -9.52310794316703    1.62425557017681  -14.79289131291568
C          -8.08467861567270   -2.64840329915365  -18.32486415498095
C          -7.62540311451523   -3.79070006662297  -18.97289065728613
C          -6.85423917800357   -4.74535637871817  -18.30279034554846
C          -6.52802536415085   -4.56630100929539  -16.96392870491706
Cl         -6.30556085693481   -6.14481290034410  -19.13368409296092
Cl         -8.01957024931676   -4.02154516082711  -20.62892374211533
Cl          7.06235088175198   -4.82877687550536    1.37189843034661
Cl          6.88391624078561   -3.93757345838294    4.34651272745249
H           0.45187942400603    0.07426137396886    2.28272873079287
H           5.01834959066646   -3.59626379628210   -0.10517371116665
H           4.66533944375441   -2.16950674965811    4.64961056669244
H           0.35377342226553   -2.66903362630927   -0.40368368740859
H           0.07326491022082   -4.28345284159936   -2.29201810895864
H           2.28997892165580   -4.52860808146326   -3.34579592776585
H           1.50950658826350   -1.09184750419113   -5.75628379536596
H          -0.67344389557341   -0.85131411054374   -4.72029913381466
H          -3.58145656219479   -2.65713390924205   -0.71588478283146
H          -4.96328317331186   -4.62999556766566   -0.21872180897762
H          -3.11093868872887   -6.72472969576273   -3.44831193263827
H          -1.73900027595517   -4.79243064568597   -3.92515675780253
H           3.47754576092500   -1.98206113558206   -6.86240795841035
H           3.80821182556257   -1.06068379242801   -5.36761221547496
H           5.52582685653809   -3.35071854078986   -6.44729500803124
H           5.93576785318167   -1.62818227531245   -6.52535829651519
H           5.82440197387364   -2.45091139374775   -4.95727111116815
H          -5.14884500844007   -7.87710764697147   -3.20075435502116
H          -3.88306044613731   -8.47789512540339   -2.09333542302117
H          -6.89615261475198   -8.58283982956526   -1.56616425731133
H          -5.88809394932164   -9.95746607374548   -2.04721804828221
H          -5.64481974596581   -9.17901048375860   -0.47501908195167
H          -5.07976320961602    1.66288585653103   -4.05669340663581
H          -3.80398697390911    1.67902292596943   -1.93014217726920
H          -2.59505617472541   -3.15275862382933   -5.18124647287206
H          -5.58501265799550    0.65676945044518   -6.17648225173463
H          -3.08894073613984   -4.15427287749743   -7.30613913340366
H          -4.19550929280442   -4.06251026567561   -9.52617772250441
H          -7.39059176192577   -1.53824027122759   -6.75362289551803
H          -9.64188972629989   -1.29192876147494   -5.80674297265691
H         -10.41450214748356    1.94812065454295   -8.48283916228740
H          -8.18431220864389    1.71436134731456   -9.40473475472959
H          -6.66137430036609    2.35266217131824   -7.45529304913750
H          -5.23739834728806    4.34973705637119   -7.51757262939108
H          -2.61479665544379    2.39419268645648  -10.26647329256027
H          -4.01682994197759    0.42399749789928  -10.19978289351228
H          -7.64006911800716    0.69013751167089  -11.49174190203798
H         -11.96612260583485    2.34576385403687   -6.76999555287496
H         -12.57127278554685    1.17803283083395   -7.97779637668905
H         -13.40263667861838    1.27726932762194   -5.03365030012371
H         -14.37713807084692    1.84729434175565   -6.39861167772004
H         -14.00128596594619    0.12493764333285   -6.22790638753361
H          -1.95334258993495    4.43545386183302  -10.52149422186608
H          -1.69276205948941    5.87867299097089   -9.52194200371990
H          -0.95629002059616    3.02916462039721   -8.66105964885062
H           0.17888651033080    4.25641336565843   -9.24261484008230
H          -0.69505373862841    4.49907361214238   -7.72349231258822
H          -8.05176550511807   -0.02409501415864  -13.71459365428875
H          -8.67600126937196   -1.93643704790451  -18.87651846859278
H          -5.93337278965622   -5.29351349710526  -16.43408741607073
