94
 SCF done       -183.679223603332          0.000668394156
C          -9.39143916629160  -12.50516374208902  -24.24671691519716
O          -8.68973827894772  -12.13377556450212  -23.32213602854751
C          -9.01500221005851  -13.49486339778670  -25.27781692663320
C          -7.82017283301049  -14.17065092532131  -25.42275365835100
C          -7.70653724428419  -15.05295376037908  -26.48513956952112
F          -6.56480635663537  -15.72799539407949  -26.66653076500168
C          -8.76999287727426  -15.24284771387286  -27.36737658551411
F          -8.63263911573037  -16.09993480327192  -28.38493387177538
C          -9.97100540372631  -14.56397036791916  -27.21960273412713
C         -10.09230687591064  -13.67838307840107  -26.16059362940204
C         -11.19950986417298  -12.81834944123854  -25.73666586998409
C         -12.42256895272146  -12.75172874603948  -26.35371814057689
C         -13.50365851490858  -11.93609008956369  -25.95896144245491
N         -14.42651574283158  -11.30044111823728  -25.70438207378635
C         -12.77688901187325  -13.50997254548299  -27.49010444876231
N         -13.12847486695988  -14.09598242322064  -28.41214332370823
C         -10.75396157902444  -12.08502285343433  -24.56982053166792
C         -11.49032207596561  -11.13118793781671  -23.90388778465150
C         -11.18047105366512  -10.33926206304319  -22.79769588946688
S          -9.67589657317368  -10.42533130657878  -21.87745641284637
C         -10.21555777422101   -9.15100004703378  -20.85162642612292
C         -11.49159130964166   -8.68363217043187  -21.21944712351283
C         -12.05171710136272   -9.35188399328914  -22.29764294119797
C         -13.38273262283242   -8.99137640853080  -22.87050540171802
C         -13.22639771968713   -8.01653323172670  -24.04125346220018
S         -12.05933965396685   -7.34301038714479  -20.24110599276984
C         -10.57928340125536   -7.41223830287022  -19.35180842704697
C          -9.71023374527203   -8.42736762227951  -19.76850672042075
N          -8.56575869474210   -8.41173818702282  -19.01276643114725
C          -7.39252739755076   -9.03418617769551  -19.59197196814068
C          -8.67356878167550   -7.36211324105189  -18.10830854351176
C          -9.92508243471991   -6.70994009169440  -18.33356090813522
C         -10.28483485875702   -5.51157544973197  -17.67857193035714
N         -11.38184697991255   -4.78483972772373  -17.82547279108673
S         -11.24149365893351   -3.45893026399531  -16.90765433241437
N          -9.77958915256604   -3.76377047552078  -16.28713046935270
C          -9.34815580159435   -4.91561224159514  -16.77539738526003
C          -8.16811470423831   -5.62523843232142  -16.46239484405493
C          -7.85031831668683   -6.88177670355350  -17.05172147113952
N          -6.74826224074196   -7.39757110093763  -16.39406735458243
C          -6.20152872497743   -8.72872419073358  -16.48918152777925
C          -4.89326054740506   -8.76217753068445  -17.28302525006104
C          -6.34418184159238   -6.49169625579437  -15.43167229252346
C          -7.19679799233686   -5.37062790538805  -15.48868960526687
S          -6.81811884488024   -4.14218721706019  -14.36928312213119
C          -5.48876397605664   -5.13790741376235  -13.76926859725805
C          -5.38025564406414   -6.38662936854910  -14.42701486989283
C          -4.50542463625148   -3.57473092649358  -12.03607513034069
C          -3.47887394490967   -3.30884871194490  -11.04938869998566
C          -2.47122596192948   -4.14467689920406  -10.63718604064382
C          -1.50561383399684   -3.80244696011902   -9.66668157656691
N          -0.68763292297358   -3.59266120958524   -8.88922392355773
C          -2.23620414064829   -5.45509040675412  -11.10148840919819
N          -1.96772120826168   -6.52526464517425  -11.42460838921342
C          -3.69299291792864   -1.94976582107531  -10.54793107757173
C          -2.99677503896122   -1.19360713774784   -9.61812357585423
C          -3.44585964530037    0.09269222926638   -9.35676175649613
F          -2.78453233790630    0.83918835490283   -8.46456044094869
C          -4.56332036747174    0.62461551791113   -9.99976003143101
F          -4.95957540285974    1.87178010878692   -9.71751210103470
C          -5.26574034576671   -0.12548885584302  -10.92954254526919
C          -4.81682448103700   -1.40437126512793  -11.18956049492371
C          -5.37284400721430   -2.39736792393337  -12.13561866518321
O          -6.35039831569610   -2.24090106611723  -12.84020572247981
C          -6.64034091027516   -8.04738886904380  -20.48244216855466
C          -4.41635113040426   -7.44104061751808  -13.97298188162326
C          -4.96519440519315   -8.18123051811152  -12.74808599721647
C          -4.60559208839495   -4.74003080046457  -12.76106711547884
H          -7.00065765306081  -14.02022836283274  -24.73835851495870
H         -10.76025184301129  -14.74728529174812  -27.92979204462920
H         -12.47495354632604  -10.93513737956193  -24.30516152174818
H         -13.91932240270907   -9.87937364659415  -23.20748829960507
H         -13.97234884562469   -8.51235113550141  -22.08645723912960
H         -12.63896051682907   -8.46327476127971  -24.84001287419314
H         -14.20451484596452   -7.75852801501363  -24.43643002597506
H         -12.73078037170586   -7.10634171169746  -23.71195873129881
H          -7.74979891906703   -9.87108316828233  -20.19708317361157
H          -6.73636612824751   -9.43702601418157  -18.82863445721637
H          -6.02194177877133   -9.09242697436940  -15.47350548911405
H          -6.95858925088105   -9.38110461299052  -16.92781454587618
H          -4.12679521035596   -8.17664494570171  -16.78238953133710
H          -4.54082263497777   -9.78646161624487  -17.37415708723247
H          -5.01879280132199   -8.34126624968918  -18.27566800135826
H          -2.12762693919100   -1.55488839419190   -9.09381796059109
H          -6.12982253062318    0.28069774561790  -11.43063391464176
H          -7.28136723316916   -7.70974638324099  -21.29328972789966
H          -6.32344839767694   -7.17589815205377  -19.91218392318833
H          -5.76627768583974   -8.52847096381391  -20.91227116119949
H          -4.23201323839508   -8.16197726422033  -14.76465875232796
H          -3.45231257435998   -6.99941738260480  -13.71629027606586
H          -5.91517219034292   -8.65994548474005  -12.97859859667936
H          -4.25708069494423   -8.94110392689281  -12.42935903060689
H          -5.12420125170080   -7.49330686938944  -11.92202751623293
H          -3.85429995299803   -5.47944120524613  -12.52493506863195
