124
 SCF done       -227.972571469880          0.000986440345
C          -4.00568109747104    4.32869409286944   -7.83736498658291
O          -4.31644285132611    4.16421396099568   -6.67137086636508
C          -4.48880853943263    3.53565412880274   -8.98790936100623
C          -5.37475120809125    2.47728560504545   -8.98966004989745
C          -5.67625681251960    1.89466622973402  -10.21040650328445
C          -5.09778314403827    2.37073819619168  -11.38671671817891
C          -4.20641713826489    3.43402463419455  -11.38338156902953
C          -3.89962554967586    4.02229567339145  -10.16681238593245
C          -3.01306064708051    5.13716620448291   -9.82499299847501
C          -2.24671870308232    5.83512262688947  -10.72301110437756
C          -1.36490912022959    6.89108174986625  -10.41132934727428
N          -0.62332488954775    7.75289007223260  -10.24577776150217
C          -2.22729095615020    5.58251283397523  -12.11126831206983
N          -2.17087018621190    5.43666565907249  -13.24847460461106
C          -3.09822094905239    5.33245714058190   -8.39337219180976
C          -2.45498944935226    6.31664556187209   -7.67720424626849
C          -3.30724307941703    2.89653995406534   12.67264191641290
O          -3.23092857611187    3.89204465863239   11.97581296118987
C          -3.07613114424460    2.83863997157193   14.13213283353938
C          -2.71793933635460    3.86306409969448   14.98475539161100
C          -2.54811031562322    3.55275952725778   16.32463485634554
C          -2.73650951696282    2.24849308213105   16.78051870860148
C          -3.09876969329309    1.22010672937515   15.92229998640911
C          -3.27033611658168    1.52190590304930   14.58075362239413
C          -3.63821660519727    0.68436910824724   13.43615411398871
C          -3.92484925478341   -0.65538715356961   13.50529976714224
C          -4.29043288268136   -1.47966955434253   12.42080886726938
N          -4.59103602002632   -2.22142432297313   11.59621536662088
C          -3.89716467140318   -1.40950269015676   14.69752473338980
N          -3.88977932876900   -2.08169757994712   15.62807308673376
C          -3.63995781270268    1.53189677196011   12.26329275226996
C          -3.88405894688588    1.11646663130148   10.97262085947983
C          -3.87571680803171    1.82548110235192    9.77054918513317
S          -3.57821403142296    3.54770938345679    9.56235499301882
C          -3.74273782217262    3.36552129633653    7.87372763888007
C          -4.00362330243081    2.04074648099986    7.46541511002716
C          -4.09732855792296    1.18626846139561    8.53476438970281
C          -3.68999546421983    4.19240687316720    6.73273079911866
C          -3.91467389454885    3.40662879535423    5.59551717791120
C          -4.11894789086563    1.95404535122121    5.96091087656625
S          -3.45013971818647    5.85368115900032    6.37725946550062
C          -3.59979276512321    5.50140103953048    4.66953047519442
C          -3.85009158636755    4.14640172050807    4.43373811328728
C          -3.42676219568557    6.44708820788090    3.62846603280284
C          -2.84114986386425    7.49761515170562   -0.07744269278635
S          -3.53674261833617    6.27639802973369   -1.13089565237270
C          -2.77794312275897    7.00253832516519   -2.48599180125267
C          -2.01280320748727    8.11679729983858   -2.13152057880451
C          -2.04643585537588    8.39262171710935   -0.77314470482719
C          -2.70258397844851    6.80408120562774   -3.88109077897116
C          -1.87256802046800    7.80640732329095   -4.42230989529203
C          -1.36062177502429    8.72927017200409   -3.34397858874121
S          -3.32437386433274    5.72494067169723   -5.05037688685565
C          -2.46420721421493    6.60415266469674   -6.31119096308285
C          -1.73997233231613    7.68900353186795   -5.78208386231561
C           0.17584776322079    8.69104063633491   -3.24503137990950
C           0.72650551798120    7.28733934046484   -3.02520294956892
C          -1.83149449358102   10.17941408983946   -3.56381606607789
C          -3.34834320669896   10.31437618018035   -3.61100339153300
C          -5.49784856611299    1.43802678175782    5.51910253884079
C          -6.64051343758141    2.31255782288414    6.02191311884122
C          -2.97099068660098    1.13471712600702    5.33194207029467
C          -2.92479020257433   -0.33238555888621    5.73647896781450
F          -2.56309074813933    1.97593827816043   18.07921651102865
F          -2.19780540267829    4.51386745379181   17.18886473665659
F          -6.53128715512449    0.86576273213300  -10.26086378810880
F          -5.40761763478840    1.79053692361308  -12.55177450622613
S          -3.32544356805773    5.82502532205395    2.00004442654103
C          -3.08098228432427    7.41005376183083    1.32421932422372
C          -3.13497054299598    8.38302161266344    2.31104613896558
C          -3.31121271263660    7.83500526939449    3.61726885931766
C          -3.14605156711534    9.83038310176933    2.05111423333365
C          -3.35157250454016   10.64867227250440    3.24563018824817
C          -3.44994572250418   10.09267711930535    4.56117324416625
C          -3.37435449314345    8.66058798978334    4.81324601315574
C          -3.48648054475816   12.01537649284006    3.23583871661674
S          -3.73048768889918   12.62313110173686    4.83792756035230
C          -3.65686932297911   11.04203472619080    5.53267725695480
C          -3.40191714298512   12.95933723247882    2.09203002753898
C          -1.94582141913028   13.35311280081097    1.82556438397933
C          -3.77764649464493   10.86549729466424    7.00221216989767
C          -2.39447906634774   10.76270737986279    7.65244559703232
O          -3.36973406699081    8.19098798357933    5.94784570879822
O          -3.02990338123741   10.31259953328305    0.93493547574382
H          -5.81959242412023    2.11303900999081   -8.07744659533616
H          -3.78821606278779    3.76245712641626  -12.32047085675172
H          -1.83695678426664    6.99979698177936   -8.24707022162881
H          -2.57219949531416    4.86948986535524   14.62622336960531
H          -3.23135169597935    0.23040609662767   16.32698341021578
H          -4.10330331777083    0.06379977714686   10.84107938465651
H          -4.31969799737859    0.13510370102659    8.48406982635079
H          -3.98116709654071    3.75411032677183    3.44027529630542
H          -1.52315765609656    9.19874189519073   -0.29696951089863
H          -1.15481106016584    8.33594154026236   -6.41152514888375
H           0.59031819622301    9.10390343898573   -4.16650158426113
H           0.48238402112976    9.33486466085650   -2.41858854670240
H           0.44937473838283    6.62976899255681   -3.84585116992417
H           1.81145991361187    7.31990062387049   -2.96444090346544
H           0.34405597943611    6.86253577491215   -2.09984999595919
H          -1.44295794279630   10.79397483860134   -2.75007785470504
H          -1.40129859903739   10.54126913145324   -4.49967269493118
H          -3.78814311770556   10.02586128737521   -2.65944955279029
H          -3.62123059751246   11.34698699547864   -3.81341540920356
H          -3.77045855220711    9.68833569651074   -4.39411674189189
H          -5.52081305103528    1.39974825403122    4.42823612637673
H          -5.63256400384504    0.42536622970999    5.89981078764320
H          -6.55296526137544    3.32557216984983    5.63602033280415
H          -7.59321672280660    1.90241033842694    5.69604180973491
H          -6.64086173883574    2.35823569578172    7.10858991544314
H          -3.06811013495700    1.20776086747967    4.24663715117966
H          -2.02710513014140    1.60866344953251    5.61279624959921
H          -3.83703879265443   -0.85095766139089    5.45557030180181
H          -2.09277799492709   -0.81841641470932    5.23212866393207
H          -2.77592706628098   -0.43492906968002    6.80744707436098
H          -3.80347477085826   12.47253829094868    1.20165605119941
H          -3.98791237899321   13.85363983553657    2.31241778577885
H          -1.36707871679633   12.47225493002822    1.56042640745511
H          -1.89891660011042   14.06039435048900    1.00231240777650
H          -1.50561170107339   13.81259348350029    2.70810127620688
H          -4.32236267296798   11.71067080013440    7.42729233002985
H          -4.32494536379127    9.94281630418408    7.20540099675098
H          -1.80012432137254   11.64686533391180    7.43179866814340
H          -2.50085585776245   10.67117539232940    8.72950033074326
H          -1.87663696092001    9.88300138712926    7.28037097831568
