144
 SCF done       -231.530128648970          0.000608107614
C          -1.03328536949139   -0.12547797737204   -0.89076939306636
C          -1.42864311695854    0.98828532024236   -0.09064147013865
C          -0.76641377296553    1.23641393895689    1.11394265378468
C           0.20760053325502    0.35246775535368    1.51161379992236
C           0.58942911411016   -0.77124006880566    0.71900608563252
C          -0.02737949574903   -0.98341601527723   -0.51534700589019
S           1.02888154007839    0.39551861563020    3.06266746597328
C           1.80463783538022   -1.10362478764723    2.67822305588212
C           1.51909297011458   -1.57664830235499    1.40991527904470
C           2.56862938245219   -2.07074859846211    3.37341905661721
C           2.75150552039862   -3.18510008724929    2.54294645536874
C           2.17390200041707   -2.91796376878399    1.16852172081085
C           1.10980935634572   -3.91372950102351    0.74676151045498
C           3.33829454790421   -2.85856398675155    0.19475325013714
C           0.96253894342912   -4.29364161253704   -0.58033756954102
C          -0.06462068118716   -5.13898906627844   -0.95621999818772
C          -0.97077271922951   -5.62224416587259   -0.02203615967279
C          -0.81910714188727   -5.23813928152976    1.30383736498173
C           0.20560208215536   -4.39296789192329    1.68510703125626
C           4.04413984448888   -4.02493284711343   -0.07956597405430
C           5.13325112825324   -4.00084012778640   -0.92756879149149
C           5.55110210009534   -2.81467676951142   -1.51959699453725
C           4.83900154837375   -1.65587623459433   -1.24625154735830
C           3.74665295351370   -1.67284164601695   -0.39635871300147
C          -2.12031185332988   -6.48769994948481   -0.44958395243853
C          -3.30522806962827   -5.61918343426691   -0.87797107237057
C           6.71313311375483   -2.79993273004276   -2.47004920264114
C           6.24117034107490   -3.08816603126026   -3.89672915249372
S           3.20494790414991   -2.30490034382881    4.93832846195941
C           3.67913608298019   -3.95404467042219    4.50700115995009
C           3.38003737938884   -4.23843875948439    3.17762612088269
C           4.23432798996195   -4.72692015536550    5.54168558955001
C           4.48020054959991   -6.07190580315133    5.62999885503485
C           4.12691992378717   -7.14550465479634    4.67003774251506
C           4.27243596807898   -8.40614316424263    5.41858192599806
C           4.77746033873921   -8.14530548388460    6.70277421553408
C           4.99866134531241   -6.70693378985989    6.83052606110437
O           3.78393747198665   -7.05015577349642    3.50836205472537
C           5.64237281703918   -6.09831967239551    7.87579401872452
C           5.95429652150476   -4.72495688741248    7.96653056297831
C           6.13446624841798   -6.78483189387052    9.00579235614567
N           6.26733935713896   -3.62958254888454    8.11492262076846
N           6.55450725479674   -7.27882640158699    9.95337317907620
C           3.97311802522778   -9.69251480609572    5.01304839929332
C           4.17369310631289  -10.72820457073705    5.91102186897564
C           4.66420002119764  -10.48953997543213    7.19345111136819
C           4.97103885607766   -9.18883414845378    7.59110005587257
S          -2.03447382755754   -0.32350522034281   -2.31787803322602
C          -3.00082638261173    1.01844773590990   -1.80856363699111
C          -2.56095607148227    1.62321093311379   -0.64399709845476
C          -4.20180656804763    1.63540203978824   -2.23065510280865
C          -4.51863016122590    2.66607793043448   -1.33569051394583
C          -3.45480817721765    2.78335524463327   -0.26631480184262
C          -4.11721285678751    2.67328911284911    1.09242389133310
C          -2.63257523610124    4.05850241259366   -0.40144259544614
C          -4.07992967182609    1.50764357927329    1.84215609725402
C          -4.71314650400674    1.44708674900853    3.07146372989675
C          -5.41163320558959    2.53653874576063    3.57093938685594
C          -5.46519817247633    3.69411736309100    2.80355780924526
C          -4.82912517316592    3.76365450522864    1.58064142838881
C          -1.98932714887290    4.60715796707450    0.69973469270801
C          -1.21167403870236    5.74186503444593    0.56491677405195
C          -1.05318742261437    6.35760662108828   -0.66942728339830
C          -1.68807155213603    5.79749478014708   -1.76980392419143
C          -2.46419517379503    4.66100157789422   -1.64092389952458
C          -6.05036002904107    2.48871753263335    4.92876313215271
C          -5.08705397076784    3.02775135378145    5.98860431710240
C          -0.17691551768512    7.56724866593934   -0.81943998216052
C           1.26414744257398    7.14819814102988   -1.11776936447286
S          -5.38782809459128    1.42580638208878   -3.43829761438624
C          -6.36729648720740    2.70712251647938   -2.70945393382573
C          -5.73197948537180    3.26843529834683   -1.60550969421664
C          -7.61707230372687    2.94164796051028   -3.30875762534875
C          -8.69649388098573    3.67283615225438   -2.88812293085049
C          -8.90086524702378    4.36820652115402   -1.59428000781180
C         -10.34461326073026    4.65533774903531   -1.52640116230981
C         -10.96718887228372    4.26781298495741   -2.72378660578974
C          -9.94848749029480    3.73387572436983   -3.62433383319350
O          -8.08267148358435    4.65864366947504   -0.74458348613877
C         -10.14930822019539    3.42002243916483   -4.94290420120740
C          -9.15379133571581    3.00512120809551   -5.85331752597025
C         -11.39563134266330    3.51912253700352   -5.59642471950478
N          -8.40492157522845    2.68489336080283   -6.66342001793927
N         -12.37633482875432    3.57000179892038   -6.19143269870632
C         -11.06947393697483    5.20631753469355   -0.48699140829128
C         -12.43650876396459    5.35989576346570   -0.64819055098622
C         -13.07536795010803    4.97128077471258   -1.82470800673015
C         -12.33478516723275    4.42404672120523   -2.87101532174111
C         -14.55813147419329    5.11885091864150   -1.95512284497087
C           4.83718503595736  -11.62151720473462    8.15571181951726
H          -1.05345351614010    2.06993723283138    1.73284227041170
H           0.24665452653721   -1.82972886461175   -1.12328973982745
H           1.65595099629805   -3.93197546045997   -1.32614348118745
H          -0.16383176386291   -5.42574526724573   -1.99352535633029
H          -1.51257979172008   -5.60353854418763    2.04778657048701
H           0.30348457470901   -4.10188791566529    2.72128386571996
H           3.73116711632312   -4.95650876556522    0.36710707493181
H           5.67166685013595   -4.91583979674516   -1.12849255221875
H           5.14370644924843   -0.72275124821410   -1.69836957469880
H           3.21385320628335   -0.75440849673895   -0.19862518671754
H          -1.81714324823870   -7.11983089412870   -1.28657606444984
H          -2.42594370315479   -7.13456402037082    0.37493687191587
H          -3.02256722053893   -4.97509612181793   -1.70777546872175
H          -4.14054678605457   -6.24158661416150   -1.18998424278503
H          -3.63011785515230   -4.98899262686696   -0.05286727380134
H           7.20170903581874   -1.82395460932360   -2.44272117972887
H           7.44253550141573   -3.55610296352198   -2.17302151131485
H           5.52261811317504   -2.33669997860182   -4.21656354901504
H           7.08298303680060   -3.07909873676236   -4.58503873873469
H           5.76175349615398   -4.06328192500047   -3.94689610536513
H           3.59586155830717   -5.19498172464873    2.74070530931295
H           4.43490832014318   -4.15074548263632    6.43820323156582
H           3.59056605846638   -9.87155061404331    4.01989031731786
H           3.94411860028013  -11.74219192995383    5.61734647975052
H           5.34619811494790   -9.01614142487556    8.58693899159833
H          -3.55394774091918    0.63900087921719    1.47473872080446
H          -4.66389544783136    0.53389723337929    3.64753185155413
H          -6.01400346775758    4.55070002303160    3.16683540294571
H          -4.87611516448537    4.67413067685257    1.00230114634596
H          -2.11073061235943    4.15854221709891    1.67481703361106
H          -0.72413928243902    6.15776675711110    1.43514634047492
H          -1.57838074390603    6.25803786013130   -2.74121235070626
H          -2.94689412494480    4.24635859230360   -2.51379746188956
H          -6.96055975271670    3.09163985708463    4.93028191059181
H          -6.32016903911809    1.46034351418190    5.17677889772767
H          -4.81634627210429    4.05721982614847    5.76484330034616
H          -5.54714009373899    2.99582496661149    6.97344465660697
H          -4.17712664409446    2.43196673613156    6.01070823767831
H          -0.54578469794420    8.19264917141600   -1.63474342943854
H          -0.19765283333821    8.15602278505564    0.09978657898133
H           1.30731660461050    6.57167442676157   -2.03920347922473
H           1.90044465953740    8.02346790155603   -1.22506339028667
H           1.65370686829311    6.53172556554889   -0.31064215760371
H          -6.17434682480573    4.06445120904761   -1.03686773840261
H          -7.75330749779139    2.38771292731158   -4.23102721184318
H         -10.57056609004410    5.50227233861732    0.42304607505592
H         -13.02501950935703    5.78597528599292    0.15134160403259
H         -12.83957666325578    4.12312709539838   -3.77484781048673
H         -14.86120643480259    5.10181249471808   -2.99856410612705
H         -15.05646450377003    4.29502981491982   -1.44298950471710
H         -14.89672146040477    6.04684193576939   -1.49970955916164
H           5.10992805928711  -12.53684069215206    7.63581463276818
H           5.59854217066350  -11.38952095985570    8.89592178948448
H           3.89928065410891  -11.80177450811069    8.68246231656260
