132
 SCF done       -216.212165116586          0.000460123677
C          -4.74550834852324    2.36983024968232   -2.48631714644135
O          -4.40581474531887    2.25305708004126   -1.31979754370137
C          -5.78121863356191    1.58163282108102   -3.17299986823456
C          -6.58344573948439    0.59992106547027   -2.67020819614640
C          -7.53069618602711   -0.01587431584046   -3.51964224009346
C          -7.62174517375792    0.40248242452756   -4.87770064680445
C          -6.77219730499215    1.42165943443638   -5.36963170202005
C          -5.86260383246596    2.00571751237780   -4.52983113506097
C          -4.87968909667604    3.06597118819286   -4.74338308081660
C          -4.64577987746674    3.69175588268712   -5.94383858928194
C          -3.69086546260067    4.70086137044107   -6.17749221417189
N          -2.93695997715653    5.52348334489365   -6.45460613595881
C          -5.33801284219498    3.39734101325704   -7.13584326624389
N          -5.86074276154384    3.21201699760808   -8.14177231932344
C          -4.21793194042054    3.30836923856893   -3.47936590424563
C          -3.28440203604063    4.28963287256961   -3.23541953496305
C          -2.15339491976287    8.36616152896932   18.12092063644939
O          -2.22611588669772    7.24798235394507   17.64510464374930
C          -2.57082988388402    8.73253407107961   19.48501652158342
C          -3.12128291138033    7.93306222238581   20.44389167012010
C          -3.45673380471969    8.49310419766531   21.69677719487772
C          -3.20758173346106    9.87613976666938   21.92717342977312
C          -2.63382573209153   10.67731768497933   20.91251572047825
C          -2.32029825059892   10.11467469009162   19.70383105713974
C          -1.74371474666519   10.67565565052371   18.48532732003324
C          -1.41753086673537   11.99985834393498   18.32155853899330
C          -0.90524392161255   12.61009737865026   17.15824706442478
N          -0.49723526978956   13.20482429235291   16.26294707374848
C          -1.56838690120129   12.97946926118356   19.32513002235028
N          -1.65882912536550   13.83336557434379   20.08818373610267
C          -1.62911911231666    9.60556187175654   17.50965785672196
C          -1.08420140252395    9.78243895007405   16.25963684674013
C          -0.96224727486232    8.92047124768412   15.16180879610360
S          -0.19332014329162    9.60498891944709   13.71973420390509
C          -0.46683091964111    8.15091042370230   12.87236877308245
C          -1.09719806503144    7.17136040286056   13.65992532301270
C          -1.37999486606984    7.60857762430925   14.93622596457370
C          -0.30602676727830    7.64729480364759   11.56476162110126
C          -0.83542348385168    6.35968810935668   11.50268429642692
C          -1.33581958818786    5.91572495465114   12.85605909775445
S           0.27043501756885    8.19034065024928   10.04187599066353
C          -0.21425189170410    6.67219510675818    9.30307877218071
C          -0.77824148022795    5.81190689597816   10.22683572713537
C          -0.09758859633911    6.48763939160918    7.87930653034568
C          -0.22669445193054    5.22777181500367    7.26219773525985
C          -0.29466448096466    5.15801829507301    5.88503259462524
C          -0.18858649393561    6.27846081212228    5.06097509895348
C           0.05950051024943    7.53117800234441    5.67432567015634
C           0.07956100015919    7.60408901758633    7.05493422191132
C          -0.38859403509483    6.13605846185376    3.64091248556839
S          -1.34931808338497    4.78360224493538    3.07082948591247
C          -1.21508445958684    5.35217914152087    1.45867967054934
C          -0.44530557666098    6.51007272419662    1.36689316309706
C           0.01847066286277    6.95127796951232    2.60177268523090
C          -1.71086537371766    5.01037705280170    0.18311462849690
C          -1.23687246803844    5.95882235516777   -0.74410381743422
C          -0.33523994393722    6.96794341034777   -0.06970441101087
S          -2.77603608289122    3.85675506919633   -0.48843735042658
C          -2.62401822807748    4.64278295834887   -2.05630660303214
C          -1.75368049610671    5.74686634023314   -1.99849061258889
O          -0.32100181516631    4.05481742106235    7.97968931099820
C           1.13688775803662    6.80733221053320   -0.50944070323639
C           1.39909106262522    7.07999963371117   -1.98427659899612
C          -2.81970508902652    5.52001390365130   12.82856014881708
C          -3.70271890079341    6.59514238747462   12.20565952772878
O           0.19780249754914    8.60013678283554    4.85125272212158
C           0.40921670885195    9.89612205481881    5.38287809064664
C           1.84806438286811   10.12335765249060    5.83631877066731
C           0.90287750117630    3.59983242807161    8.54108399595517
C           1.89824913041186    3.13810699716207    7.48343227396068
C          -0.44038282775505    4.75179706022648   13.33763741016855
C          -0.73433372866444    4.26062393724489   14.74855254436522
C          -0.83410962065884    8.40818805192000   -0.25887978432295
C          -2.23022235957489    8.62449246121221    0.31346228333477
C          -8.57184990136363   -0.21540329302124   -5.71526508050884
C          -9.39364766553883   -1.19950502794850   -5.23625954034567
C          -9.30279396227695   -1.61066588631883   -3.89865050586220
C          -8.39062382508056   -1.03123023494758   -3.05852705709565
C          -3.54545985345529   10.42647185027030   23.18010307982697
C          -4.10344132859500    9.64981861631519   24.15889661572768
C          -4.34870584806395    8.28782901382472   23.93037999733952
C          -4.03210831594367    7.72181274659789   22.72524017915409
H          -6.50018298837926    0.29872280205042   -1.63639936869031
H          -6.86938027258819    1.71497463368931   -6.40267134739336
H          -3.02166107856127    4.92443632425248   -4.07314270984389
H          -3.30097163946530    6.88628864989102   20.24757684436318
H          -2.45833259680219   11.71978149750971   21.12347059287657
H          -0.68538223261492   10.77007528411741   16.06107353424679
H          -1.88069918391276    7.04168034514428   15.69898393731208
H          -1.16555335886617    4.84818804954350    9.95336491250446
H          -0.44108473240899    4.18668763967728    5.43705261514753
H           0.19483666039558    8.55886423565071    7.54325252095160
H           0.62364497854403    7.82365970613799    2.75485910988503
H          -1.56302055272177    6.35114178036929   -2.86793353947721
H           1.74287878371374    7.48260812826401    0.09867104647930
H           1.44633413108776    5.78492306105065   -0.27819142697889
H           1.14861233453507    8.10335186136725   -2.24919596400595
H           2.45430075182057    6.92540710423216   -2.19803569424820
H           0.82468970895801    6.40336804361906   -2.61037637386274
H          -2.92198468790586    4.59188027750332   12.26267585431068
H          -3.14987327624375    5.33821944315474   13.85139170683238
H          -3.42549924062924    6.77438680499325   11.16917039970253
H          -4.74357171664505    6.28210339640409   12.23169682242460
H          -3.61335460230204    7.53081701034949   12.75328304912209
H           0.17539270059330   10.56443703962093    4.54905367132676
H          -0.29725150020974   10.10242855476561    6.19509101284137
H           2.52950164620042    9.94668889181672    5.00783634969162
H           1.96368292286967   11.14913559909782    6.17449798351970
H           2.11565751394716    9.45336949615439    6.64926806309060
H           1.35291492054188    4.38674458095133    9.16163743215737
H           0.61682389915548    2.76365457040351    9.18381465819768
H           2.18921097177641    3.97060920679405    6.84596667240125
H           2.78501760135947    2.73857209833893    7.96740145281195
H           1.45356787096425    2.36351895589937    6.86391283574365
H          -0.55846703990674    3.92604660472962   12.63214559131397
H           0.59964314784357    5.08521340204172   13.28662972393320
H          -1.73599067442291    3.84702508808039   14.82249880794595
H          -0.02632203480873    3.47778055843944   15.01159299037753
H          -0.63422957807022    5.06535027092123   15.47095805070373
H          -0.13163161887687    9.08654976047366    0.22964011289699
H          -0.84716187182155    8.63832783665046   -1.32460522378074
H          -2.24059703174420    8.44602367047031    1.38622575431268
H          -2.55315283319245    9.64687668252233    0.13202776641227
H          -2.94522697920402    7.95120601723578   -0.15401065975459
H          -8.63833593677257    0.10472551030469   -6.74483152268464
H         -10.11872088912293   -1.66611662606262   -5.88628408416282
H          -9.95877853185831   -2.38838166516255   -3.53667595729874
H          -8.31595482935533   -1.34338384396987   -2.02692051762659
H          -3.35557781909724   11.47604615352376   23.35105045520910
H          -4.35935415617297   10.08126629584010   25.11509842115411
H          -4.78961113425263    7.68935851702596   24.71371778941510
H          -4.21866343780519    6.67335970808224   22.54300861662710
