233
 SCF done       -388.224896370136          0.000757290507
C           4.30115545322386    2.08891382628777    4.75907181088117
C           4.98051920842032    1.28515353843004    5.70685294679247
C           4.29587782530682    0.66870096981162    6.72665939689808
C           2.91620649293232    0.86177599583201    6.77537783014700
C           2.23135603868950    1.62492087728209    5.79856979126447
C           2.91951825948321    2.25848661681272    4.79066445842285
C           1.94188730559821    0.42631578543588    7.72185839083300
C           0.67243069735660    0.89309875067001    7.37435402939026
C           0.73621174977142    1.63682100376211    6.06507879139195
C           5.28883799973022    2.60662596479433    3.86653481995375
C           6.54554467817882    2.11012930741632    4.18296493905166
C           6.47104259626886    1.23942691718066    5.41114609689675
S           1.93614294892266   -0.46115391982412    9.17713280001011
C           0.19087019426480   -0.20354893414423    9.34282244255143
C          -0.31278373069132    0.53655987641117    8.27379318845744
S           5.32149340088905    3.70172395912472    2.54828612803007
C           7.04977556559411    3.46542010991604    2.39796885546886
C           7.54703111973365    2.58412821027513    3.34372490330354
C           0.24460018409500    3.06857876987876    6.12506830540279
C          -0.05540014397102    0.81374283371917    5.05919387172825
C           6.87002693977467   -0.20471738963818    5.17679466114341
C           7.32625298603543    1.89874855270049    6.47937959735462
C          -0.39661699345827   -0.74295272360114   10.49539229202375
C          -1.69039639755549   -0.73583121294448   10.96039105978407
C          -2.89720970220848   -0.17345892192413   10.32202226561136
C          -4.01732596188584   -0.49832407451336   11.23177361663594
C          -3.53508828286635   -1.19429819175945   12.35068886525468
C          -2.08640489283173   -1.34445356591438   12.21931819018712
C          -5.35485900756001   -0.19940994094596   11.07518412968474
C          -6.23993467331206   -0.60813923570056   12.06437472177680
C          -5.77052001952652   -1.30324917246862   13.18352847467408
C          -4.42053317636580   -1.60050902239417   13.33596476380612
O          -3.00594930691354    0.43154454747520    9.27483559376522
C          -1.28231843776704   -1.94101891670709   13.15700377129381
C           0.12121487887029   -2.08036793753480   13.10599303457520
C          -1.75806077574345   -2.51001692910867   14.35801121582392
N          -2.06707626617729   -2.99502876717711   15.35174221458288
N           1.25763093344685   -2.23833053322169   13.16951704988143
C           7.76572624719175    4.18854230549674    1.39331137310825
C           7.22378115471729    5.36452109209200    0.80671972909460
C           7.95293021657063    6.15712477444074   -0.14963998233201
C           9.24407365574610    5.79148915682500   -0.61878231563908
C           9.71926064847860    4.61636123356234   -0.05705795436821
C           9.02416860394450    3.86426885018981    0.90997791782827
N           6.06861702562076    5.96322908990375    1.00730687798016
O           6.06809886657105    7.04540212069451    0.23389548116522
N           7.18914567556355    7.18083366881130   -0.46870778405273
C          11.22778042931237    9.58765982634977   -3.67765835036168
C          12.25918100103616    9.06389042234741   -4.49450649698059
C          12.95207714427808    9.87529466363625   -5.36082062996248
C          12.58982241774809   11.22087675072081   -5.40083420923330
C          11.56580438297981   11.74525408530391   -4.57594595934816
C          10.87830739792630   10.93454784981085   -3.70331091588857
C          13.08691692806677   12.30465779457243   -6.18446614973841
C          12.44007228204543   13.49370328077448   -5.84984244872999
C          11.39922408798077   13.23894639115686   -4.79020526641156
C          10.72214938110825    8.50414925973213   -2.89692900788781
C          11.43398580675273    7.34035069164135   -3.15099910826418
C          12.45332950467904    7.57808758459957   -4.23660168223381
S          14.23688763453240   12.51213060443626   -7.42836452074041
C          13.88534632619819   14.23397608258043   -7.48800237112772
C          12.88975533047277   14.58055305252215   -6.57549166343538
S           9.47524953775107    8.28165415221634   -1.74308547707791
C           9.94617331593688    6.60449473158132   -1.56245187138485
C          11.00461764257251    6.26113009656776   -2.38685133266287
C          10.04387697686926   13.64008026434905   -5.34364794679627
C          11.69595664238234   13.93482630604656   -3.47158645160361
C          13.88870749432902    7.34629120834464   -3.80736308806682
C          12.06162219713591    6.70022467840058   -5.41303081262151
C          14.53457469238325   15.02755297950499   -8.44960711554568
C          14.61255923097316   16.39159484797052   -8.53102943766328
C          14.89632955887964   17.02716325742214   -9.84092979365783
C          14.55737917811072   18.45778856832574   -9.65462974850226
C          14.21494107846203   18.68644396708351   -8.30964162905350
C          14.38025350529525   17.43860043772685   -7.56610249163491
C          14.53837972761657   19.47349455123117  -10.58752448792631
C          14.15789809531711   20.74412215654147  -10.17130706598546
C          13.80604685130817   20.97572040888365   -8.83748520861419
C          13.83695069684361   19.95185064151787   -7.89640540207554
O          15.27886951712098   16.48260465015827  -10.85078409674053
C          14.55324020808599   17.34495735251419   -6.20770455664987
C          15.03085979121940   16.18097106788366   -5.57614557734307
C          14.36529543803266   18.41075181497638   -5.30682745837790
N          14.19475677851193   19.23353307525816   -4.52425046733022
N          15.47011970452333   15.27105880565814   -5.03067573266965
Cl         -7.91420939847342   -0.25782263835245   11.90970450620289
Cl         -6.87427804817336   -1.80510944672942   14.40060852478970
Cl         13.32622975767146   22.54863412645299   -8.34188116144191
Cl         14.11993874599119   22.03417085221756  -11.30468541410655
C          12.99201813022107   14.29981113392279   -3.13606077599050
C          13.25566052969227   14.90944326629500   -1.92379404643740
C          12.23978472437986   15.15151183408835   -1.00908705325743
C          10.94859774712907   14.76148939232506   -1.34036187510704
C          10.67742277866852   14.15720983562871   -2.55357508554901
C           9.15879179260876   12.70378702920697   -5.85271663746899
C           7.92829700057490   13.08670420461577   -6.37195634579164
C           7.59730464149901   14.43372823625270   -6.39078082341230
C           8.48435516727930   15.37872870422847   -5.90454776896711
C           9.70254234460177   14.98732726833287   -5.38277057096365
C          11.31295664797948    7.18733109593303   -6.47429333993816
C          10.92632326036003    6.34645345835788   -7.50256309801929
C          11.26476044609654    5.00066153760242   -7.49207331387021
C          12.00666546630393    4.51610354639140   -6.42183305802522
C          12.39649373525587    5.35135138405615   -5.39324811540784
C          14.87593719451477    7.13539903155117   -4.76181462110867
C          16.19345820949090    6.96643583070300   -4.38159856152702
C          16.56086347552949    7.00667397153910   -3.04266064224309
C          15.57202521904046    7.23002839224367   -2.09444063408217
C          14.25225650966018    7.40147639376632   -2.46950170953416
C           6.86130863378600   -0.75376611134782    3.90264810260680
C           7.18910611620333   -2.08342897013238    3.71015109609443
C           7.52035066032116   -2.89997571602562    4.78256142139779
C           7.51740563696210   -2.34780454311047    6.05728060205912
C           7.19449308966210   -1.01916153244806    6.25476048136052
C           6.78227324217411    2.75420535774249    7.42622733651899
C           7.59668879586419    3.38107488593434    8.35215642073512
C           8.97015478306126    3.18197556060417    8.34841270479691
C           9.51071878840478    2.33440272923566    7.38935036897987
C           8.70231252267435    1.70427686198473    6.46345913870153
C           0.21730456190575    3.76958197300881    7.32187679949440
C          -0.19673704275632    5.08879478238949    7.35168705691535
C          -0.58547561316528    5.74189902293158    6.19030424669247
C          -0.54196570991613    5.03965202866007    4.99255083429178
C          -0.13227560189180    3.72086643441661    4.95755141554164
C          -1.44393552488538    0.86900210826113    5.09281260573243
C          -2.19653243675829    0.09523416508369    4.23156242132754
C          -1.58600851975708   -0.75927729275841    3.32158398881991
C          -0.19971578718535   -0.81376432779393    3.29724570727569
C           0.56040131837173   -0.04244835222781    4.15868375547290
C          12.52474824396144   15.86310512007061    0.28154125045381
C          12.43501462134441   17.37775695874070    0.08368154306444
C           6.96004088537418   12.04235747346286   -6.84833459700042
C           6.18019419019180   11.46199036810673   -5.66659222547173
C          10.87973584863225    4.10136802407897   -8.63102090486835
C          11.96980394618179    4.10185183584542   -9.70472817412995
C          17.99942930630992    6.86578527713874   -2.63717285020859
C          18.69181265929881    8.23022898775902   -2.64800689692043
C          -0.99475099561598    7.18613157964603    6.21616628901854
C           0.21035589018712    8.08781170489408    5.94094124785899
C          -2.40436934159538   -1.56892707927313    2.35762585608696
C          -2.64524401449015   -0.78174945837015    1.06787016602852
C           9.84371511499107    3.82800681986575    9.38446288237756
C           9.97135543208360    2.92437547211225   10.61261283945966
C           7.92323388120866   -4.33009073904076    4.56719851532463
C           9.43961423701387   -4.43622217537529    4.39226423471803
F          10.92905893320670    4.14701001601929   -0.40994238001663
F           9.65213216426405    2.76461462336196    1.36279513139296
H           4.79485847187842    0.06722494468224    7.47048096183885
H           2.42022120740460    2.86501946219098    4.05128995257075
H          -1.35250740288626    0.79309956574406    8.19636264068365
H           8.58605258412840    2.32516331765795    3.42322286574871
H           0.32026198679310   -1.25390561050876   11.12700957168015
H          -5.69960932501486    0.33795203211855   10.20592320260558
H          -4.10081711171223   -2.13819264195614   14.21294943950387
H          13.74451619610179    9.49779390540614   -5.98827945605521
H          10.09881034080345   11.31635277721641   -3.06243176676863
H          12.49238983809780   15.57619710462820   -6.49682218743677
H          11.42416653367020    5.27367262361957   -2.42997274700511
H          14.96562127876686   14.49809761727285   -9.29382303560891
H          14.81324253522949   19.28504643677111  -11.61322546648008
H          13.55927744000544   20.16216378264422   -6.87611297026134
H          13.80541105528637   14.12094518052224   -3.82322188330291
H          14.26963473716656   15.19866579157848   -1.68916682674070
H          10.14309993015380   14.93253957130816   -0.64023145663542
H           9.66354574870525   13.87000321570114   -2.79312197491899
H           9.41994960204466   11.65524653647220   -5.84373211687366
H           6.64277421115946   14.74522006483798   -6.78965510275849
H           8.22286710732591   16.42642303072254   -5.92817154481702
H          10.38601694592851   15.72475781036745   -4.98765601338693
H          11.02908799658648    8.22919204853053   -6.50304267405998
H          10.34694742786313    6.74396705187940   -8.32386616694724
H          12.27788408132631    3.47045521798453   -6.39130037339608
H          12.97430474482521    4.95732685747906   -4.56987548986485
H          14.60971924398518    7.08854057316444   -5.80808482533755
H          16.94812747477114    6.79690757912040   -5.13642956855115
H          15.83608666252730    7.26824965090877   -1.04724808876940
H          13.50047100684379    7.57525658214924   -1.71355240525193
H           6.60204757227880   -0.13942831319747    3.05275862905969
H           7.18452551750709   -2.49245031286551    2.70979763329684
H           7.76979638353112   -2.96653442106548    6.90661562723250
H           7.20858921427960   -0.60689552371203    7.25336568707506
H           5.71740687083640    2.93490756073675    7.44476243450390
H           7.15545304215941    4.04041839571747    9.08604163887902
H          10.57850592881610    2.16978469577573    7.36430724469559
H           9.14026117268357    1.04788421438216    5.72548442821349
H           0.51479874734248    3.28301957556479    8.23948447497304
H          -0.22079510648011    5.61696837736944    8.29425081198324
H          -0.83746376687254    5.53028672707682    4.07609566571118
H          -0.11906726925739    3.18790020562287    4.01764750259612
H          -1.93608509837531    1.52537803736910    5.79497314622405
H          -3.27482989632406    0.14989556500927    4.27157376251507
H           0.29636076698671   -1.47385184242367    2.59980833183342
H           1.63790251746389   -0.11273636342874    4.12435834478684
H          11.80539219538778   15.55487130029239    1.04309052538454
H          13.52632686558055   15.60546956886970    0.63161231755900
H          11.43774144176270   17.65718759847100   -0.24889526211865
H          12.64888330371124   17.89658629864518    1.01517281605431
H          13.14933525538633   17.70421243383720   -0.66866480590445
H           6.26077314190032   12.48193449103160   -7.56191637822670
H           7.50155327932701   11.23776431222115   -7.35069872022165
H           5.62755017451589   12.24777871324108   -5.15641102924507
H           5.47523918410800   10.70817690750503   -6.00902229931521
H           6.85949183595230   11.00213590713587   -4.95217655196235
H          10.73525999384883    3.08262817722695   -8.26584215545080
H           9.94096087417997    4.44317287263319   -9.07159494328404
H          12.91137507811349    3.75142479575943   -9.28787958552432
H          11.69134914321650    3.45081509885256  -10.53004656657182
H          12.11997303990006    5.10765981345969  -10.09070322225267
H          18.06163128511760    6.43834100538621   -1.63449238845201
H          18.51521199070397    6.19518341423056   -3.32750586025729
H          18.19817520149688    8.91017277699347   -1.95730995653436
H          19.73387212124280    8.13061675042095   -2.35347532568161
H          18.65177566438239    8.66717870083542   -3.64323195140530
H          -1.75941775630210    7.36734548015446    5.45804095002623
H          -1.41553339185455    7.43476117880621    7.19234273287369
H           0.63686240096047    7.86314633896806    4.96593717336460
H          -0.08535736102350    9.13414664568728    5.95841503153826
H           0.97950850153101    7.93105385387112    6.69398048713137
H          -1.88331155375268   -2.49853751266128    2.11958879044298
H          -3.36543075737479   -1.82160779638258    2.80970044920528
H          -1.69798010690419   -0.52976443031866    0.59618694150256
H          -3.23657294755635   -1.36830092250239    0.36863743348803
H          -3.17676963826096    0.14256530168148    1.28289165344688
H          10.83635371364978    4.01327817810008    8.96922281717207
H           9.41452266315782    4.78575426492227    9.68561827391913
H          10.41165154136893    1.96921683908831   10.33520245245845
H          10.60135828031610    3.39199623780532   11.36553979027513
H           8.99199549875719    2.73612878811811   11.04678770948324
H           7.61695780921518   -4.93398699613833    5.42376025096122
H           7.42972101292696   -4.72423563069744    3.67661798833819
H           9.94953372937857   -4.06040608434321    5.27650317094735
H           9.73332632246514   -5.47144343783505    4.23534485317458
H           9.76338313252415   -3.84910988763637    3.53571909694701
