109
 SCF done       -210.420389800840          0.000861275445
C           2.27057926081141   -2.05026051265553    3.46236312043570
O           3.13694587014083   -1.23558779200036    3.68824649274615
C           1.09085009043028   -2.37438688050260    4.29408412644668
C           0.68004615377118   -1.80185084945325    5.46255865728961
C          -0.50578047613134   -2.26641300795328    6.07571327944497
C          -1.24710801539069   -3.31631548099360    5.46018881582531
C          -0.79312948489315   -3.89513597669315    4.25275338022308
C           0.36175973438018   -3.43370204440126    3.68188797122195
C           1.08747506661912   -3.86115096868576    2.48872241608268
C           0.97272125224311   -5.09214096658442    1.89278645462685
C           1.91477498633333   -5.58964357479888    0.96923182853462
N           2.68970153333924   -6.04676245073226    0.25548575785452
C          -0.04213533996112   -6.01992891068224    2.19275857755573
N          -0.86948885492941   -6.79599952847872    2.37246425384042
C           2.13375318224513   -2.89540180460099    2.25043711209591
C           2.88149575757434   -2.61430539846243    1.14250667648624
C           2.63471444803236   -2.95255481880269   -0.20214190116333
S           1.01357076295094   -3.38083663046707   -0.75540350951544
C           1.57882258378056   -3.53687796114292   -2.37508206457879
C           2.94890794052270   -3.25016826842687   -2.46515611513934
C           3.54751677378708   -2.90620724559689   -1.25143872943423
C           4.98767600486705   -2.53552572854738   -1.12258894388073
C           5.17453986810496   -1.03261500532038   -1.35005982900865
S           3.58220427286849   -3.41088440114505   -4.08749482063777
C           2.00680578231662   -3.86835202634486   -4.62853931289347
C           1.04081266441712   -3.88666109427286   -3.61434915071204
N          -0.17164664832323   -4.26456704464382   -4.12482830230237
C          -1.20697596126685   -4.71087175410750   -3.21729171914669
C          -1.36224901836880   -6.22877234460695   -3.24865094089631
C          -0.00284009649738   -4.50548088285174   -5.47966714804376
C           1.36748661065390   -4.27914410048140   -5.80495476445523
C           1.88943532368384   -4.53822338825153   -7.09171261526389
N           3.13413864069191   -4.40300132230974   -7.52119002884148
S           3.20258599149054   -4.90431740030852   -9.05861770248221
N           1.64565455118776   -5.30883678806064   -9.23612231047318
C           1.01687385527186   -5.06573577438758   -8.09708371221551
C          -0.35676641906910   -5.20771975795300   -7.79968492931620
C          -0.89680142887355   -4.87629438005032   -6.51949644033606
N          -2.27217701639292   -5.00628330227662   -6.58657798898849
C          -3.30995695695572   -4.50524891906431   -5.71348125467911
C          -3.22730360989241   -2.98875274372221   -5.55959280229121
C          -2.59672559666517   -5.40995441719901   -7.85309553720973
C          -1.43358627590572   -5.56578087896340   -8.61828840153154
S          -1.72685982140374   -6.07740573543239  -10.24340590984454
C          -3.44784483195688   -6.05908055106192   -9.90146757364500
C          -3.75768396122997   -5.68035705895803   -8.58222262016817
S          -5.45761614946082   -5.64411207797571   -8.30323624809195
C          -5.75396375400697   -6.13976584974326   -9.97225642803222
C          -4.55690663774423   -6.32251132300412  -10.69119921844559
C          -4.45057561796160   -6.79069861705328  -12.10518536525246
C          -4.54843695461174   -8.31713838108258  -12.18087644718537
C          -7.01482477666434   -6.31618010633345  -10.54391963687146
C          -8.27690201957652   -6.15859081658877  -10.01716726682032
C          -9.51446860180132   -6.35026716112414  -10.74456617341306
C          -9.66619598372790   -6.73946712028163  -12.05231120696063
C         -10.91471036055861   -6.89176655007980  -12.69042148052050
N         -11.89535485740455   -7.03211700859615  -13.27079677143296
C          -8.62380959779057   -7.04202132074998  -12.95199007223066
N          -7.83432613840984   -7.30916192205017  -13.74367199854052
C         -10.61430500233379   -6.04677968658047   -9.82956691607268
C         -11.97297910613815   -6.05651976322711  -10.00082147682086
C         -12.81281404410855   -5.70494258732589   -8.91838471227521
C         -12.25173710332791   -5.34559265592708   -7.65919483902310
C         -10.84736449198458   -5.34422330666374   -7.50436824418476
C         -10.06445446220748   -5.68619073175545   -8.56807213146142
C          -8.59401196311438   -5.74906467500342   -8.64959228466931
O          -7.81463692438552   -5.49903348167442   -7.74440868864855
C          -2.43045325222011   -3.77150961273652    6.07526621891004
C          -2.85619858070239   -3.21358286583298    7.24783668266794
C          -2.12200190605759   -2.17630224671250    7.85625693147655
C          -0.97123969332768   -1.71168414844309    7.28364505525171
C         -13.10779520962686   -4.99762283004955   -6.59674647647270
C         -14.21384537412861   -5.70299813724850   -9.06913882421840
F          -3.98120444758342   -3.64925971451803    7.83127399185576
F          -2.56395654513242   -1.64624349842144    9.00532612947706
F         -15.27629333899398   -4.67143702732558   -5.76282249769674
C         -14.46298490341008   -5.00450233507480   -6.77495035927857
C         -15.01942132954955   -5.35954961819697   -8.01965399515716
F         -16.35132915298052   -5.35685595597481   -8.16566471713778
H           1.25223087199764   -1.00663257262130    5.91569138271676
H          -1.37434538827026   -4.68493072385048    3.80374950925277
H           3.73180828069202   -1.96353270877727    1.31995462968294
H           5.36352987738194   -2.81327974372618   -0.13797265561807
H           5.55483677312102   -3.08499462558109   -1.87623196666665
H           4.61881001195662   -0.45875059766461   -0.61187781970742
H           6.22672378081088   -0.77397641023084   -1.26955671771787
H           4.82355172664074   -0.75383254742267   -2.34082708402907
H          -0.89381620476373   -4.40414113172064   -2.21627576938393
H          -2.14823032288006   -4.20294389094151   -3.42584845925461
H          -1.61176777414298   -6.58018184390422   -4.24724990485137
H          -0.43230350210197   -6.70301759531858   -2.94330342962388
H          -2.14570498079755   -6.53449754387184   -2.56073542912298
H          -4.26235083275238   -4.76624104400951   -6.18097125628503
H          -3.27719444775490   -5.01339902860335   -4.74968965103417
H          -3.36949953350248   -2.51085349683644   -6.52593524468456
H          -4.00697899201161   -2.64293482099624   -4.88661215999310
H          -2.26016365411801   -2.68111854837489   -5.16834531404492
H          -5.22985856550804   -6.34770589217284  -12.72694363829205
H          -3.48082581815497   -6.47623439259871  -12.49599388060455
H          -5.50620177873153   -8.66185055103805  -11.79848729465765
H          -4.45533391662695   -8.63956825588824  -13.21372454198992
H          -3.75439772789724   -8.77678088200037  -11.59704744692764
H          -6.97357923261954   -6.61827642359721  -11.58131269427114
H         -12.43066381066189   -6.32328122229670  -10.93933564008262
H         -10.40201825698435   -5.07517158451665   -6.55857235061356
H          -3.00214788315940   -4.56768542696082    5.62450489676675
H          -0.42065699477751   -0.91714271519566    7.76232665750372
H         -12.69708391631206   -4.72331921517298   -5.63767570100109
H         -14.65646865542374   -5.97202355832399  -10.01551339969147
