170
 SCF done       -281.664558956949          0.000421165696
C           2.25708392726014   -2.59531908287327   -0.10807723004707
C           2.20862935481053   -2.01857917545808    1.18341701985294
C           1.26372629999862   -1.05174416113267    1.51917144029809
C           0.30504185922652   -0.76064165681469    0.57862988404002
C           0.26155101799563   -1.45699255630278   -0.65413407918852
C           1.27066887703643   -2.34028952605834   -1.03150583928376
C           3.42293782298031   -3.56615338884981   -0.22093763756259
C           3.86300448778768   -3.64111387352661    1.22116908398423
C           3.18471197383072   -2.69563866420885    1.97768069592487
C           4.71455574168001   -4.43443501022787    1.97958277336091
C           4.64356540819870   -4.13084262493542    3.33082259768553
S           3.55842763784731   -2.79510760831005    3.64786807913464
C          -0.87528895491455    0.18955192284863    0.70226814850942
C          -1.71442826785780   -0.25810816938174   -0.46784534283224
C          -0.99547321892710   -1.14362573536130   -1.25789142953698
C          -3.01410670386148   -0.05429139999756   -0.91146482483072
C          -3.31185469517323   -0.82192609711976   -2.02485239000711
S          -1.91973058101675   -1.74533345912034   -2.57117492378276
C           5.20243424269985   -4.86556128547747    4.42128852571074
C          -4.60128012585739   -1.02345671777907   -2.59743956017907
C          -1.54420313642115    0.04841591640295    2.05073596318541
C          -0.48617144933035    1.63428182218870    0.42356512418881
C           2.94712191738854   -4.87892262582048   -0.80381981985684
C           4.58700497274351   -2.98940869048619   -1.01067010391433
C           6.15508604361942   -5.87343518595987    4.27536748578439
C           6.55987427087452   -6.67754437701441    5.33194270675740
C           6.06800100749114   -6.54955047865559    6.63215437552539
C           5.10039996672368   -5.53581280019200    6.81293550988658
C           4.70530782509567   -4.69466516958603    5.73264461014365
C          -4.84820360313009   -1.93519435082441   -3.62304310354484
C          -6.12105402855196   -2.27052745597977   -4.06399512610928
C          -7.27796827315872   -1.70907357000069   -3.52188395071656
C          -7.05549584876364   -0.71864858265741   -2.52839347361887
C          -5.75015033615216   -0.38484073287762   -2.06784096174389
N           4.34818159631193   -5.19901155577759    7.86859903954803
N           3.60976377918363   -4.21539803260451    7.43994695983672
N           3.76041692949980   -3.86500546288143    6.19562470733286
N          -7.92780134270056    0.01509556595551   -1.82413654972551
N          -7.18086704698004    0.72343224368582   -1.02235934761471
N          -5.89331219801239    0.53906351245212   -1.10618206263961
C           6.45339387751347   -7.47153730242702    7.65277026024476
C           6.39920431573525   -7.29771217393757    8.99605369406056
C          -8.63339716338273   -2.02804072677619   -3.81647252923318
C          -9.21974685531711   -3.04347454740680   -4.50786264659917
C          -7.74604002059895    1.62971708675568   -0.06344219771203
C           2.74844230391073   -3.49500678441935    8.33150409093902
C          -8.67933750697421   -4.20503642777484   -5.20128418336562
N          -9.70629682478663   -5.04376320129206   -5.62964993638318
C         -10.97565542110602   -4.63505659793190   -5.37706288598241
S         -10.98508845245363   -3.10087660784393   -4.54739985452915
C           6.25951228592043   -6.06936793735171    9.77212975423453
N           6.08146372094475   -6.37261277103862   11.12345242264288
C           6.18324117852499   -7.68021254178592   11.46932540056500
S           6.56245230452950   -8.67430697649788   10.08214962944903
C           5.90433327906207   -5.28349552546012   12.06483909386656
O           6.34234199451712   -4.92893066372250    9.37818794973451
C           6.01933127779587   -8.25630872100330   12.70505800101980
C           6.16886532811291   -9.65194659379561   12.84303545213157
C           5.68510876930062   -7.59879972682040   13.90011084890354
C           2.93149359508707   -5.06594856618424   -2.18326765464876
C           2.45572143696052   -6.23644186764358   -2.73006533069525
C           1.97460978195468   -7.25997013237634   -1.91080083789963
C           1.97656798365698   -7.07278861211737   -0.53332143168754
C           2.45370088684504   -5.88912800993931    0.00520321797236
C           5.67003838973945   -3.80915595611433   -1.31627692384420
C           6.76291773199709   -3.31149562838095   -1.98811278456079
C           6.81332104115068   -1.96921526367999   -2.37322319647047
C           5.73707742010360   -1.14684033402195   -2.06322770397259
C           4.64205308250688   -1.65786272260706   -1.38483035676842
C          -1.08825098946055    0.79029580978359    3.13654553722628
C          -1.67130126961540    0.65454415933620    4.37662510018733
C          -2.73341280578640   -0.23069232646898    4.57261168077578
C          -3.17974459793755   -0.98599808147940    3.49446814988356
C          -2.58114522724196   -0.84726922794089    2.25330838664267
C          -1.44181255224787    2.63267426049712    0.59422839525163
C          -1.15069017300218    3.94445875889939    0.29846755475085
C           0.10994561515889    4.30042650361629   -0.18751940454018
C           1.06555758093891    3.30691973540569   -0.36108197672078
C           0.76151417718043    1.98863142417797   -0.05945520282650
O          -7.51603876140926   -4.48441055185866   -5.40225994334043
C          -9.35828042482927   -6.25610496825938   -6.34768638910780
C         -12.15610116203612   -5.27191983497548   -5.67316313460657
C         -13.37569335708851   -4.67035461469117   -5.29962293198318
C         -12.30746631610163   -6.50691241780751   -6.32433067937099
N           6.28748805066233  -10.78599480217744   12.96940606881567
N           5.40894400265729   -7.12598752195992   14.91037534053208
N         -12.50658758005834   -7.50856933720770   -6.85114026690139
N         -14.37388986098269   -4.19236381765045   -4.99714669359102
O          -3.22522913577824   -0.28151124598294    5.84122002920492
O           0.29109336073083    5.61969884651359   -0.45470991679177
O           7.95242858582697   -1.58881739629375   -3.01211516815467
O           1.53592088334315   -8.37383263154211   -2.55154078666533
C          -4.38260378620092   -1.04296376243545    6.11821487730270
C           1.53271031380428    6.05118820419981   -0.97542552105404
C           8.07548693677471   -0.27451942139497   -3.51603183444561
C           1.02701412053362   -9.45068741054817   -1.78991700571571
C           3.55862239057943   -2.43303929653255    9.07007961383494
C          -7.55266604969692    1.09257138911435    1.35111630096444
C           7.29985613790634   -0.06611075626929   -4.81380560972549
C           0.60972661746050  -10.54443943491046   -2.76017355942760
C           7.20771146625507   -4.92988047947733   12.77119616717571
C          -5.66090190303131   -0.37297000092925    5.62153776463105
C           1.44190400001846    7.55179077066944   -1.20313454847936
C          -9.44726511566182   -6.06083448171546   -7.85637799729542
H           1.26467895169845   -0.58977403491918    2.49427201115294
H           1.24756411449354   -2.83399130697236   -1.99088753758754
H           5.31334302676033   -5.23544261610878    1.58688167678125
H          -3.74876891634964    0.57431887016358   -0.44461494887858
H           6.58836876997531   -6.04659370026388    3.30260190648456
H           7.30137832642699   -7.44014035053653    5.14057934466098
H          -4.00212708344197   -2.43494847306347   -4.07261180504147
H          -6.21570504229600   -3.01394026441091   -4.83683481012642
H           6.77865287922654   -8.44432128172915    7.30057573199878
H          -9.32850984584934   -1.34220309179537   -3.34248473457307
H          -7.24702856387124    2.59660395463399   -0.16880083741381
H          -8.80473051291003    1.72938907196960   -0.30680257906640
H           1.95719875555322   -3.03957272097962    7.73363937935823
H           2.32667738704351   -4.21316652232720    9.03769469569917
H           5.56494024932810   -4.43133917966699   11.47021381499299
H           5.13068672861487   -5.55283509235635   12.78593268794096
H           3.30586733073306   -4.28855577528451   -2.83311193566751
H           2.44477022560917   -6.38786471163834   -3.79781695714961
H           1.60806103590022   -7.83676679813263    0.13318235178417
H           2.43893850958400   -5.76065350431965    1.07774036653734
H           5.64608048066474   -4.85078236985569   -1.03274565014149
H           7.60349543744900   -3.94288513291633   -2.22880618230449
H           5.73180742612770   -0.10298446223452   -2.33520881687978
H           3.81973587285121   -0.99718784075552   -1.15299993201133
H          -0.27671963615447    1.49049502609416    3.00297166463580
H          -1.32329670296581    1.22935272107395    5.22031162505143
H          -3.98735889014084   -1.69329984902191    3.60069794585543
H          -2.94118855234649   -1.44917703071237    1.43185950869110
H          -2.42061157097606    2.37364030696381    0.96905646785292
H          -1.88607719475145    4.72221227131279    0.43012730821016
H           2.05111646738212    3.54078184637830   -0.73197820860022
H           1.51975314859453    1.23367101267843   -0.20555167427042
H          -8.32639935787586   -6.48340113903534   -6.06555457041663
H         -10.01008109378693   -7.06730062292621   -6.01972217923267
H          -4.28841429007719   -2.05656678494480    5.70899173918148
H          -4.40279984509526   -1.11488897240189    7.20925304244051
H           2.33974259974406    5.82340186222606   -0.26482840027670
H           1.74333868826104    5.53597257019229   -1.92322276456148
H           7.77618947846446    0.46082703516537   -2.75877021765596
H           9.14663560955039   -0.15646793051646   -3.70295976186006
H           1.79955529207753   -9.82604767762050   -1.10396281780472
H           0.16281174151076   -9.11860169687180   -1.19757907527818
H           3.91536195103619   -1.68066418215775    8.37117772928747
H           2.94492163037048   -1.95111332633549    9.82553295866241
H           4.41830960004471   -2.89764743495945    9.54758708585350
H          -6.49308414590411    0.95414877680131    1.55277309566873
H          -7.95997256181150    1.79507441836739    2.07233574471251
H          -8.06049860693780    0.13799737935311    1.46708806408495
H           6.23321882755980   -0.20707401557197   -4.65701705456683
H           7.47295209014480    0.93970714773957   -5.18673578495317
H           7.63397647802347   -0.78219357270845   -5.56026321493018
H           1.46588167493818  -10.86548034395963   -3.34701121920763
H           0.21268458011531  -11.39405816095751   -2.21213692908747
H          -0.15181461254879  -10.16764332065112   -3.43725017394355
H           7.96348107465874   -4.64692525690853   12.04198196462952
H           7.03731272487604   -4.09361727917415   13.44254990896605
H           7.57538961691449   -5.76823080889673   13.35805381694595
H          -5.65127786357698   -0.27085350219103    4.53901542470694
H          -6.52281854204521   -0.96679802900541    5.91283159892950
H          -5.74986589147070    0.61818530999436    6.05903276297072
H           1.22979026188012    8.05690919206193   -0.26493464119900
H           2.38041552703990    7.92280723800603   -1.60492922049906
H           0.64098106844848    7.77241808485457   -1.90336989263354
H          -8.77888418177028   -5.26246600924725   -8.17091584042846
H          -9.15393154647979   -6.97995735933786   -8.35444705218126
H         -10.46224064846689   -5.81688248481980   -8.16089473326483
