114
 SCF done       -207.726078633724          0.000769634567
C          -1.96757284278885    4.27431025736205   -0.76766487458309
O          -2.66114104567442    4.50250603924143    0.20763264305235
C          -0.82530641589762    5.08221775817486   -1.23573422303293
C          -0.29565733708938    6.23211080836051   -0.68252293309148
C           0.79940762906133    6.81743309287752   -1.29881399727184
C           1.32137496615475    6.23205047028249   -2.44225963761568
C           0.80416118224176    5.07828851869384   -3.01720720515136
C          -0.28961251906077    4.49832637635715   -2.39729871055408
C          -1.06652741411796    3.29990983802987   -2.72481210444857
C          -0.84097321156789    2.48689034553163   -3.80621867753371
C          -1.58108487799917    1.33449019650797   -4.14217263184029
N          -2.12742463456801    0.38564667128654   -4.49157193522798
C           0.18236603335961    2.69626258687692   -4.75502763916953
N           0.99338674810703    2.80699798240332   -5.55973895690913
C          -2.08750350281143    3.15750518103491   -1.70927762530760
F           2.38422512823114    6.80920968263915   -3.02606433160179
C          -3.00194423587752    2.13376231100470   -1.62643580202438
C         -16.63967490061366    0.69541189060827   16.33398436392182
O         -16.57573054851317   -0.23755763781871   15.55681758318452
C         -17.56331874180288    0.77782092144621   17.48320701660413
C         -18.51634575829863   -0.14072181813164   17.88062087036567
C         -19.28830235187065    0.14822629138677   18.99422744327760
C         -19.07923623260313    1.34383982420252   19.66523722288932
C         -18.12605311092282    2.27928334785115   19.28597043577243
C         -17.35549974249951    1.98224700830007   18.17390761209606
C         -16.27755274518295    2.71937970661160   17.51278628201420
C         -15.74927113985436    3.89834801146860   17.97176533754414
C         -14.66748442602183    4.61235688579317   17.41277933234388
N         -13.79038713766324    5.25913406643053   17.04879605201354
C         -16.20953564788945    4.57621005112209   19.12139293034636
N         -16.53098592487754    5.18439622980822   20.04028667012205
C         -15.86701502044511    1.95414747089733   16.34886241880672
F         -19.83990946066101    1.61282458258922   20.73909071426653
C         -14.96182809472380    2.42007281145777   15.42453337165554
C         -14.43586745150103    1.85025357303897   14.25793666530302
S         -13.34904263584223    2.88350108445360   13.31678162636392
C         -13.15009708786971    1.64116314747457   12.16801951993834
C         -13.88306709734260    0.48163898303022   12.48196191695925
C         -14.58890133782428    0.59762225631040   13.66002979043632
C         -12.43727183130404    1.42463283214859   10.97202220854493
C         -12.70623694656948    0.13240850179911   10.51048434069246
C         -13.67441378917539   -0.57920071292579   11.42697446583841
S         -11.36149366090865    2.28440658245916    9.95441664713838
C         -11.27821244785196    0.90709018390297    8.87757284409737
C         -12.05440553422270   -0.15560591072174    9.32289635286441
C         -10.49611739412852    0.93504970238819    7.68272076779039
C          -9.67689089283005    1.99550194294697    7.30909461790861
C          -8.91351648614419    2.01935221899344    6.13761325058721
C          -8.89356466740641    0.99120548133218    5.20035115826700
C          -9.72800101698824   -0.10407524866261    5.54680437094702
C         -10.49508112252054   -0.13460300938331    6.74979806638085
N          -9.96613510570482   -1.25215778470418    4.89801994454493
N         -10.80357912669932   -1.89421886781019    5.66266907548907
N         -11.15683641744061   -1.29944314953962    6.76689919835420
C          -8.11058843154215    1.00944685911364    4.00626082834973
S          -7.00140624624064    2.31437512693139    3.64604679965485
C          -6.54178463703706    1.52703065065842    2.19724565628067
C          -7.23106287060881    0.32618007163622    1.98850088713624
C          -8.10659773149711    0.03033783497162    3.01994262967201
C          -5.60991210748479    1.72312351514730    1.15649828828031
C          -5.70737239534906    0.63541073432802    0.26845368419824
C          -6.78902505767076   -0.32815844511739    0.70179983803589
S          -4.40733947418081    2.85718439914243    0.72070527623815
C          -4.00159534242191    1.87754427538334   -0.68424292275822
C          -4.81119554827594    0.72993113160536   -0.76592978117434
F          -8.16643343672604    3.11931089186866    5.93032928858902
C          -7.90341519101278   -0.30666075913411   -0.36776451796775
C          -9.14269669320800   -1.12041276177986   -0.02104354637621
C          -6.24462190987081   -1.74572424501532    0.93373085236380
C          -5.05926237439331   -1.76859396026007    1.89179230303546
C         -14.96767688344396   -0.86202281175518   10.63055944871582
C         -16.09041404771287   -1.50925075954517   11.43022041520568
C         -13.07568158892013   -1.86560615792781   12.01761140972850
C         -11.72370027668983   -1.63516112062194   12.68278174900250
C         -11.27351240853760   -3.20948775374764    5.33226892685619
C         -10.29031075504150   -4.26621261153172    5.82729765042915
F          -9.58840068216696    3.07662341691060    8.10578591294579
H          -0.73144671162293    6.65459811765881    0.20929377241184
H           1.25385624126906    7.71448962457340   -0.90922263592346
H           1.26192277109779    4.67887666009618   -3.90680561404935
H          -2.95083660397333    1.37806270282149   -2.40095536513882
H         -18.64648649466003   -1.05820419084811   17.32821811862364
H         -20.04625197374350   -0.53200940005212   19.34885399923822
H         -18.02105006177160    3.18776723622508   19.85484392726083
H         -14.58773486969510    3.42096162070691   15.60505590186013
H         -15.19579956808851   -0.16620114536305   14.10937312839915
H         -12.11129133475793   -1.07865452929796    8.77758973896651
H          -8.71878152240358   -0.84768925373792    3.10258656777157
H          -4.69853082198035    0.01733802423718   -1.56390894414581
H          -8.19593773063849    0.73433145728559   -0.52575948897187
H          -7.47645925293075   -0.67607375825128   -1.30236870971311
H          -9.59258272921648   -0.76550646806981    0.90187369912434
H          -9.87513270042133   -1.01735919727548   -0.81842189220387
H          -8.90597907811075   -2.17558379007360    0.08390507406237
H          -7.04335818992333   -2.36449775539684    1.34363955346174
H          -5.94456700934797   -2.16494863100207   -0.02847676271025
H          -5.34084950685085   -1.36185955143547    2.86047354601658
H          -4.71563734913524   -2.79016977647906    2.03500289249070
H          -4.23233691155591   -1.18108679946222    1.50012135950828
H         -15.32325274611101    0.08715464962530   10.22159212670423
H         -14.70381642619894   -1.50635634574441    9.78891124392486
H         -16.37973399620483   -0.88866337891717   12.27294350401749
H         -16.95980729263771   -1.63650694674374   10.78890406939816
H         -15.79972933171056   -2.48849590719294   11.79983348656853
H         -13.77026247406112   -2.26413882267912   12.75713365419443
H         -12.96754169132902   -2.59788603427333   11.21497920681680
H         -11.81007219280444   -0.90910918194148   13.48793239802631
H         -11.35294930724090   -2.56715127979310   13.10255861870378
H         -10.99375109164576   -1.26796134387196   11.96493655610727
H         -12.24708730011183   -3.33673215414361    5.80872437077685
H         -11.37681265922887   -3.26283785453967    4.24683644026765
H         -10.17746690446277   -4.20016730539074    6.90662255473834
H         -10.65646187561149   -5.25669741316087    5.57380454353100
H          -9.31806782570528   -4.12145896865210    5.36291043919750
