134
 SCF done       -223.741983189000          0.000425723993
C          -1.49361407499164   -0.12265456234373   -0.87566128237084
C          -2.61436596627589    0.66797706982488   -0.94253119062469
C          -3.83129414284907    0.48614881135046   -0.14510247132281
C          -4.74070141535250    1.57982147008766   -0.53054789713808
C          -4.12029151937535    2.37586440314942   -1.50971804156942
C          -2.79393022017042    1.82538897811983   -1.79489493613212
O          -4.05797299866252   -0.38958843336281    0.67249243373834
C          -1.90924154802683    2.33295718466519   -2.71167271389333
C          -0.63569948981901    1.80577080141142   -3.01001381903664
C          -2.15652153737969    3.47244765043082   -3.50586575534744
N           0.41131465810586    1.44394321196766   -3.31553545231843
N          -2.28677853695139    4.39158758083452   -4.18151034259673
C          -6.00854757063818    1.85843525973889   -0.06066071400929
C          -6.67194051151771    2.96100749633544   -0.58140356648664
C          -6.06786683720169    3.75267899954594   -1.54677422929811
C          -4.79239211986384    3.47379695724048   -2.02233006297749
C           0.48775829289673   -9.64281378104865   10.34980792744512
C          -0.14578887072145  -10.40347553698823   11.29300622785235
C           0.37456284161123  -10.39411086578313   12.68705570694717
C          -0.72890888919010  -10.92828433578731   13.51351796115147
C          -1.78128571673959  -11.34428322753028   12.67728511216660
C          -1.36927169808974  -11.16791240165227   11.28535463003323
O           1.45302894418653   -9.98922747500296   13.05678817858166
C          -1.90869398776285  -11.83268765847439   10.21237882647645
C          -1.27020570629317  -11.89399653618956    8.95957654825372
C          -3.10372702696618  -12.57491080529657   10.25486747281184
N          -0.74942707434547  -12.00487998364181    7.94215194645123
N          -4.09362819058671  -13.15603052622745   10.21856849089149
C          -0.81873459480821  -11.02866663000457   14.88768038097975
C          -1.98686807553270  -11.54424291103739   15.43320394474006
C          -3.03332025903638  -11.94187096000598   14.61378116320204
C          -2.94473189041446  -11.85190013998772   13.23046197813181
C           2.55547887345080   -3.33468975057638    0.50324699639999
C           0.95519103912721   -5.22072065060101    0.06536908179648
C           2.98532728692985   -3.35308568822857   -0.81693094663457
C           4.16706825431981   -2.73027615933883   -1.17153713322505
C           4.94469352299766   -2.07931132078099   -0.22228311048543
C           4.50885941961517   -2.07031200946741    1.09606682348216
C           3.32404301175263   -2.68391168664654    1.45710274455831
C           0.05644521755217   -5.23926647375300   -0.99143617331510
C          -0.16630030677287   -6.40932259431987   -1.69440720981231
C           0.49232598822896   -7.58424646169057   -1.35705354094431
C           1.39281115115397   -7.55684409469454   -0.29974804618963
C           1.62568322033252   -6.38982007700700    0.40173378878581
C           6.25027633743629   -1.44444399396715   -0.60405143244851
C           7.39211232505489   -2.45463088943903   -0.47359411954669
C           0.27663453935624   -8.83828481218828   -2.15357224196729
C           1.20604419216011   -8.86327049646170   -3.36874094793073
C          -3.89547363769144   -8.50964105550136    7.29543469343387
C          -2.52610010777195   -9.18733916083001    5.32210785660812
C          -4.71895973239232   -7.47184630310814    7.70013217665862
C          -5.86019131580445   -7.74010635401543    8.43561730814941
C          -6.19200158295055   -9.03946799552105    8.79399968689702
C          -5.36152098888496  -10.07505199617562    8.38063691836688
C          -4.22880894168837   -9.81685443562164    7.63420217398540
C          -1.72945277918979  -10.32213583607520    5.30151042699504
C          -1.64881457481741  -11.08995515141196    4.15341087046588
C          -2.34962782583004  -10.74223974601530    3.00711731620733
C          -3.16015542805908   -9.61432763303502    3.04325157296267
C          -3.25439534124283   -8.84872744317349    4.18829223197645
C          -7.44701271570324   -9.33229221985132    9.56403072778483
C          -8.60422046954286   -9.61938781222117    8.60515462515379
C          -2.19449797657176  -11.53114091812574    1.73929490176667
C          -1.07511670248582  -10.93777443337275    0.88074015336080
C          -1.21830605045057   -1.23662753752405   -0.07387446289037
S          -2.27252351955915   -1.97895008389705    1.11431737938293
C          -1.05646055925436   -3.13820338310175    1.48668302634846
C           0.10904833805337   -2.96915733805236    0.73049941413489
C           0.01276018305476   -1.90254082257542   -0.13662027947193
C          -1.05589109914836   -4.12630886637099    2.49203561327021
C           0.17057488265858   -4.67934044650569    2.86237127534488
O           1.33306189062383   -4.36842588586989    2.27347140054876
C           1.23200498468792   -3.96495679385390    0.88781586455901
S          -2.38841772245722   -4.70235823671270    3.45509410005842
C          -1.29702601485142   -5.67239361255625    4.38169082004790
C           0.03107078339974   -5.53903341945523    3.95771125544498
C          -1.44379284786496   -6.58235836252668    5.43414000183247
C          -0.20898404991609   -7.09888049724467    5.83329596095882
S           1.12455740858777   -6.50537282865242    4.88540487825108
O          -2.60338718598891   -6.90507322209032    6.03201945811076
C          -2.61411012248229   -8.26098855362558    6.53392092134539
C          -1.41078142613172   -8.44043972215870    7.42797112964260
C          -0.19360506515133   -7.93053282756802    6.97354451955232
C          -1.30256554994819   -9.09254477299314    8.64277800166057
C          -0.00155417668948   -9.13565213876745    9.13282006199030
S           1.09499960400209   -8.29772027399395    8.04889114119772
H          -0.66893479757416    0.14103939426298   -1.52674725114462
H          -6.45788931489564    1.22768242598719    0.69089846689299
H          -7.66463937969280    3.20486072805021   -0.23410603380997
H          -6.59746915958874    4.60681141766112   -1.94140081764366
H          -4.35021720427335    4.10862857235431   -2.77231576880845
H           1.47774558671702   -9.30322207053512   10.63897361663999
H           0.00475340348449  -10.71212889720418   15.50903021303324
H          -2.08391513556181  -11.63508761699729   16.50456636416835
H          -3.93719657058803  -12.33177266057829   15.05737020087599
H          -3.77228936115046  -12.16213777352122   12.61261095092233
H           2.39464933938616   -3.85601827015250   -1.56857000891190
H           4.48840562429012   -2.74781223756988   -2.20290965882724
H           5.09983729196414   -1.56968996820782    1.84957225839600
H           2.99425633957040   -2.66634195047122    2.48436930060750
H          -0.47129389502424   -4.34004581754311   -1.27390945075323
H          -0.86911757784339   -6.40859290660073   -2.51529783773358
H           1.91770198613054   -8.45941225221836   -0.02200287979257
H           2.32844610366695   -6.37792994395952    1.22194956718255
H           6.20100594456639   -1.08765596609222   -1.63447338130505
H           6.45029703658775   -0.58977606246101    0.04505619235045
H           7.21523572921824   -3.31076476678640   -1.12076403671348
H           8.33825475341920   -1.99704257235751   -0.75265363773841
H           7.46678691693175   -2.81102478859406    0.55133080460318
H           0.47615340428147   -9.71122463473787   -1.52988469274307
H          -0.75996444664349   -8.88812703487651   -2.49316970997868
H           2.24526411959743   -8.82852212351548   -3.04980038278600
H           1.05005602811290   -9.77030422389241   -3.94784726852439
H           1.01635122380735   -8.00504110840413   -4.00933095607061
H          -4.46545954049864   -6.45743921356172    7.43470075052903
H          -6.49786437885220   -6.92337429376050    8.74265205945870
H          -5.60008777490645  -11.09408522449093    8.64941009667347
H          -3.59876444105054  -10.63307282623451    7.31057908302016
H          -1.17241125136567  -10.62204802110405    6.17650063517188
H          -1.02395914632854  -11.97086904609419    4.15406221950320
H          -3.72408167443500   -9.33179925578356    2.16578606955497
H          -3.88711651439869   -7.97301428008535    4.20645039618999
H          -7.29034461002385  -10.20076365893408   10.20678121746899
H          -7.70424660943088   -8.47888140919510   10.19469706610195
H          -8.37086881152227  -10.47755219996603    7.97930381680486
H          -9.51479090244194   -9.83086249193586    9.16070493620400
H          -8.78139315907395   -8.76264842035474    7.95879535624656
H          -1.95584417218067  -12.56976989359633    1.97512751718664
H          -3.12866641754345  -11.51343654110034    1.17436617519271
H          -0.13229769258555  -10.96026774435371    1.42303621387231
H          -0.96231709502877  -11.50693113674152   -0.03933669001883
H          -1.29777761625030   -9.90329615112740    0.62666169158122
H           0.79594067927474   -1.59635762515939   -0.80784763995938
H          -2.14948369088703   -9.47965128452057    9.17837872376997
