89
 SCF done       -150.645369218359          0.000996075538
C          -5.54261985199772   -3.84968321923146   -0.86127638524937
O          -6.68964555887865   -3.59357420908347   -0.55742047917834
C          -5.03974462015775   -5.17881873255026   -1.25937309573751
C          -5.75016371599122   -6.35461614072986   -1.40351880130154
C          -5.06187470219383   -7.49098690032075   -1.80295450414701
C          -3.69759735777794   -7.43468578944073   -2.05051758869440
C          -2.98023315643104   -6.25495194053641   -1.90305851171234
C          -3.65767893528326   -5.11408468574932   -1.49991182541994
C          -3.20260666891065   -3.74811095417088   -1.24967179101653
C          -1.89371737167276   -3.34418191237430   -1.27206615115337
C          -1.40579145204772   -2.05698034013503   -0.95862954530092
N          -0.90971512311880   -1.05023642980941   -0.71321187000661
C          -0.80951697101210   -4.19082470468558   -1.59028936257620
N           0.12204951485588   -4.81447169129646   -1.83732701232992
C          -4.37187804406608   -2.94325175759839   -0.92553625415954
C          -4.33677807523779   -1.58073096599012   -0.80433781549740
C          -5.34085732320167   -0.63682427730506   -0.51142678143170
C          -6.67530029326486   -0.73685987284725   -0.15068685863224
C          -7.29019584470733    0.49397594824970    0.03478816793655
C          -6.45550333245882    1.58016035097402   -0.16915806179075
S          -4.86636046870738    1.04850551394666   -0.59177052538021
C          -6.77543098327461    2.98491663045334   -0.09264011385829
C          -5.75341562614898    3.94281706355741   -0.13833605516482
C          -6.02753112435231    5.29399424154268   -0.10579349046760
C          -7.35105863354710    5.70480135085865   -0.03178412835359
C          -8.38652666507622    4.75549535719355    0.02519225937572
C          -8.10989125291870    3.41115907926957   -0.00018090768402
C          -9.73294117776416    5.43793489474708    0.08825947185120
C         -10.61999878459844    5.04474408970219   -1.10752935587606
C          -9.96534649872785    5.33792273887603   -2.45203262372569
C         -10.46523486130983    5.11172702657062    1.40408330904696
C          -9.65071793048314    5.46943796031755    2.64133644609397
C          -9.33677827569957    6.89464684286340    0.02769284882852
C          -7.93827690883663    7.02687238301201   -0.02768681472799
C          -7.35646534985808    8.28539520188019   -0.08804909758149
C          -8.17568721560557    9.39445934086462   -0.11194596338713
C          -9.57222764660602    9.27840783738507   -0.07617396338684
C         -10.14915102046276    8.00073909367472    0.00621696715813
C         -10.39954683258532   10.45785177342182   -0.14792621357183
C         -11.78224076322272   10.54082071514742   -0.14054391103884
C         -12.27492583896141   11.83255121601766   -0.26449679484006
C         -11.28156829955279   12.79287086413179   -0.37226005825567
S          -9.70407837603291   12.03403500871556   -0.29784092300206
C         -11.29956740311593   14.19626628641480   -0.49537688629468
C         -12.32796940264620   15.07536388484357   -0.70060243611685
C         -12.14663311535797   16.51769310416126   -0.77195049615281
C         -11.04283161276322   17.23347491609346   -0.39014596833418
C         -10.94741771740580   18.63985768767072   -0.46578638463648
N         -10.79394065918903   19.77671276338256   -0.50720377703046
C          -9.85886923983939   16.70523366388576    0.16862518387207
N          -8.87197829671469   16.37198516094898    0.65316410213338
C         -13.39542135917432   17.10066797300401   -1.25702367612919
C         -13.74513705928269   18.40433945982807   -1.57455709067004
C         -15.03870892157464   18.65525937716327   -2.01273092945227
C         -15.97434489434319   17.63770453475590   -2.13495303418844
C         -15.63362171284295   16.32931930627705   -1.82368340693739
C         -14.34682881809782   16.07624042076449   -1.39009174654829
C         -13.74705255051141   14.78149115972569   -1.01223194220700
O         -14.32838049190869   13.71630159112772   -0.98978408934045
H          -6.81134212732622   -6.37205813600349   -1.20776167308245
H          -5.58926580177745   -8.42514877002276   -1.92427748660021
H          -3.17752627724878   -8.32696485958692   -2.36538513766999
H          -1.92221256157229   -6.24313216270769   -2.10613964471511
H          -3.37388656013773   -1.11794635011951   -0.98769100676558
H          -7.17152195021663   -1.68238791170086   -0.03436565509149
H          -8.32073765208130    0.58975877363508    0.32518795245529
H          -4.72879645161718    3.60591123015566   -0.20190286060747
H          -5.22574737755771    6.01524729147898   -0.14495833226112
H          -8.90911510306678    2.68736504348325    0.02707265863521
H         -10.84641468460478    3.97877160021718   -1.03946346592585
H         -11.56349170182488    5.58979381782427   -1.03719578031831
H          -9.03332259995155    4.78659491088536   -2.55484806097267
H         -10.62911527420030    5.04527109406882   -3.26208986085040
H          -9.74840077567079    6.39917890745759   -2.55143423858699
H         -11.41023722099535    5.65855404409414    1.42203697766125
H         -10.69707435592498    4.04475794518007    1.41881263949994
H          -9.42595148261996    6.53354228200806    2.66041180949869
H         -10.20938819835278    5.22011176862956    3.54036227120026
H          -8.71180983855241    4.92039762913280    2.65670407844874
H          -6.28372416514458    8.39782607832586   -0.12291895544758
H          -7.73816415453754   10.38085410473306   -0.16669623959589
H         -11.22124372476259    7.89015628656897    0.04209057702569
H         -12.42472465262080    9.68417814912037   -0.04793038952369
H         -13.32018253202780   12.07849518368419   -0.28290216061313
H         -10.30940857717555   14.63403779745940   -0.43702398591510
H         -13.03980961464838   19.21494493594442   -1.49433276756914
H         -15.31887315262894   19.66736322679590   -2.26367659079672
H         -16.97250377382142   17.86732318719469   -2.47625245068602
H         -16.34252498483761   15.52051361255732   -1.91327547742673
