98
 SCF done       -160.174526755940          0.000544657073
C          -3.08125428365348   -2.53361564144208   -0.89305483993941
C          -3.19079893988521   -2.37789836568724   -2.25149126786596
C          -2.12618778901615   -2.09000625374582   -3.23767729185519
C          -2.82659807392375   -1.73587085192115   -4.48790218760543
C          -4.21353051119690   -1.86308521045898   -4.30946115029999
C          -4.46679290875109   -2.32370823552575   -2.94562558485181
O          -0.91965556829040   -2.11532293470708   -3.09290020355419
C          -5.69464019411179   -2.68660023304449   -2.45620959107617
C          -5.95647881349481   -3.22182400864322   -1.17675889712159
C          -6.89454607618141   -2.60817685664098   -3.19479979739323
N          -6.26252240116672   -3.68007602389659   -0.16851787237122
N          -7.90921488712062   -2.56602271793036   -3.73034514800911
C          -2.28130087628888   -1.32348699606130   -5.68769185074997
C          -3.14549252052117   -1.02498102393760   -6.73148071837317
C          -4.51768437853122   -1.13942101059477   -6.56143811813212
C          -5.06852905483714   -1.55857899513337   -5.35727842359139
C           2.73082280333592   -0.73033923208908    9.88267365801977
C           3.62581338946117   -0.25095785290580   10.84553820099379
C           4.95920951956073    0.06462101737233   10.74973688217017
C           5.80062205165085   -0.10815160158095    9.56078096847552
C           7.14617251688881    0.35935559116933    9.94054204821924
C           7.12755216263491    0.79442909703047   11.27710269379058
C           5.77349840821671    0.62795845093895   11.80809423397054
O           5.47256987858746   -0.55206353851609    8.47359859877579
C           5.37597726663565    0.97718516119774   13.07314727373272
C           4.07360524047704    0.84671777998333   13.59807755330971
C           6.22947780101481    1.53884149585778   14.04619143688412
N           3.04388535557097    0.78063310387921   14.10374880959746
N           6.86165805577374    1.99918256268845   14.88685726391647
C           8.29473089490354    0.40287541371644    9.17584097909359
C           9.45314661485803    0.89402809558030    9.76186733480135
C           9.44472946855831    1.32504403629606   11.08016512992824
C           8.29030708111724    1.28176618315394   11.85211207126606
C           1.37114975089111   -0.93426877522790   10.16730793364890
C           0.65143351554982   -1.33108964275910    9.06395353951230
C           1.44669814308469   -1.45065172710992    7.91967145157592
S           3.09083603134290   -1.07971724122330    8.19819198261197
C          -0.78364692291883   -1.63688000662581    8.73830009329248
C          -0.68925065856187   -1.89278209909590    7.24816476147038
C           0.63136218120472   -1.80049242451354    6.79877872647673
C          -1.70350165899843   -0.44343082709680    9.05469762992345
C          -1.28099778515766   -2.88641350425203    9.49094156158924
C          -1.28962136287773    0.83379365830868    8.33381112421262
C          -0.42665971108275   -4.12060280953793    9.22843508109813
C          -1.72205826647028   -2.16732458561063    6.35809000095125
C          -1.43503462886072   -2.32214950230567    5.02205757223958
C          -0.11446597028295   -2.24227345497235    4.54197915782254
C           0.96415429012788   -2.00191389553969    5.44001059005488
C           0.21595292271521   -2.38449926398760    3.17419234723063
C           1.54241304698026   -2.37161364229210    2.72934358471818
C           2.57742692025616   -2.14635912408862    3.63325969806908
C           2.28687206875239   -1.95377639040322    4.96324846855686
C          -0.61649372942699   -2.49621372370040    2.01990190071889
C           0.16080919103928   -2.55596072903760    0.86223945661337
C           1.62394997625950   -2.55082930836797    1.22291953504754
C           2.20014462424297   -3.93252515742251    0.83926393943851
C           2.38560220591158   -1.36317570902215    0.60435645139172
C           2.53659259289290   -1.40182103725392   -0.91096585032641
C           3.66108098445841   -4.16066257077773    1.20252941450333
S          -2.29013601070326   -2.50708593420975    1.68466437890894
C          -1.95951188984135   -2.56945465605768   -0.04955757564755
C          -0.59059474632987   -2.62197810181340   -0.29687960260882
H          -4.01786824743496   -2.58945000514551   -0.34995026602609
H          -1.21067198952047   -1.23899782303690   -5.79417660139564
H          -2.74961814671571   -0.69914990327529   -7.68173104416293
H          -5.17666150401423   -0.89693143018949   -7.38154891392550
H          -6.13857979350677   -1.63321591007855   -5.25463285130605
H           3.15881287528646   -0.09129640862871   11.80997159802441
H           8.27661583953173    0.06209828606500    8.15198659560216
H          10.36705661981483    0.94198218351004    9.18917539526565
H          10.35431610239942    1.70433863521924   11.52112812833539
H           8.31653063870539    1.62366875067629   12.87362898673847
H           0.96904938602259   -0.76871656831996   11.15136464333053
H          -2.72461548527594   -0.70489305476033    8.77068100741619
H          -1.68920200220326   -0.27301743265352   10.13301422347247
H          -1.28244626839045   -2.66621459933939   10.56033117885969
H          -2.31039517309076   -3.08758120548046    9.18804111836844
H          -1.31295522875782    0.69312165197207    7.25537512517418
H          -1.96961398007551    1.64245313759020    8.59021967590672
H          -0.28282979026075    1.12986640828461    8.61941261529524
H           0.60131711356802   -3.95332946979820    9.54170630370021
H          -0.81964582613113   -4.96903548361578    9.78336721090960
H          -0.42627415237676   -4.37220313078234    8.17015976966972
H          -2.74051122813533   -2.24382264261767    6.70771350704745
H          -2.23161090164756   -2.51608893384226    4.31936071510398
H           3.60130050221400   -2.09608796701170    3.29786560565166
H           3.08310423841985   -1.75869633405927    5.66581589154130
H           1.59102720654779   -4.69320542364967    1.33538252107983
H           2.06854736843799   -4.06042287281549   -0.23616683022595
H           1.85435356700997   -0.45006090360053    0.88642606395115
H           3.37541271207708   -1.31560652700588    1.06084624993511
H           1.57051480871410   -1.39784740918051   -1.40591050676325
H           3.08434196782110   -0.52030538230153   -1.23757731709668
H           3.09098666464802   -2.27916580070645   -1.23218495902117
H           3.80188073774024   -4.14701717236767    2.27974781079651
H           3.97271134714363   -5.13630436114849    0.83542719715830
H           4.30492092550194   -3.41051264415533    0.75168221933816
H          -0.20424724012718   -2.69721047146984   -1.29518161556285
