104
 SCF done       -174.977743743257          0.000234669787
S          -5.95308406690265    3.83699071542088    0.18503633272896
C          -5.60915194060588    5.50864594088336   -0.25297251833915
S          -6.74331246199224    6.56034930489631   -0.76976146225603
N          -4.28893770436224    5.77120981695167   -0.10667717091003
C          -3.72908283571911    7.08454662806319   -0.36048961521245
C          -3.90256572675165    7.99832485380204    0.84615267507026
C          -3.48007479948327    4.73851273245073    0.34310299290445
O          -2.28702290997626    4.85217071642499    0.50824381201942
C          -4.27607889586732    3.52914992191212    0.57462477717861
C          -3.69858251367468    2.39739510249172    1.04442796562305
C          -4.27627868080100    1.13624947531778    1.36790639992179
C          -3.43587104565957    0.13528044059612    1.92924773553932
N          -2.13091583652411    0.22882275547905    2.17189266269991
S          -1.61665035011353   -1.14869806447757    2.81980332107174
N          -3.02163502527384   -1.93306844194217    2.82887992105786
C          -3.96125040147232   -1.14213950117117    2.31804347858771
C          -5.33624491017132   -1.45898603912913    2.14946102501485
C          -6.11852913470378   -0.45985138959154    1.57298995584766
C          -5.61235695829903    0.77909248323603    1.20211917283853
C          -5.84797039890423   -2.72176479877116    2.57186454633914
C          -7.14533381200454   -3.20462256387262    2.45535985366306
C          -7.29247261191628   -4.46743603893646    3.01401530029184
C          -6.10400069206500   -4.95719648179532    3.54140619312534
S          -4.79407968796274   -3.86647735134738    3.37152192608158
C          -6.28473071726910   -6.27527004084283    4.05832726720221
C          -7.63717300217473   -6.62500457676671    3.83804252548429
C          -8.39667902094008   -5.47548706183635    3.19471966796266
C          -9.45762740122815   -4.98944498464526    4.20767757422246
C         -10.17983580366923   -3.70564129656260    3.82126144573972
C          -9.03345838609412   -5.88190378237852    1.85692341914646
C          -8.02153411261039   -6.47871546233035    0.88568243017678
C          -8.11186064063890   -7.85901229871669    4.21824181870559
C          -7.21082469277873   -8.73440916507057    4.82074327501376
C          -5.85951843936009   -8.37818297717437    5.04906705975477
C          -5.38498359229317   -7.14639915621252    4.66776892552430
C          -5.10531626230623   -9.50510539747222    5.72671570457002
C          -3.93448093249043  -10.00417260842356    4.85993498990913
C          -4.37252634827966  -10.45203132850204    3.47082668452786
C          -4.57906980793274   -9.07734335108864    7.10959351680128
C          -5.67920938879478   -8.56891243429337    8.03330446461858
C          -6.18383356971926  -10.54390838579967    5.84560222631793
C          -7.37354530713147  -10.06558698576269    5.31532340243366
S          -8.64105247343334  -11.21503970210167    5.41458196252600
C          -7.55502195407679  -12.36464790494594    6.18392049217295
C          -6.28327646445852  -11.83838455356271    6.33810814063117
C          -8.01492009320858  -13.66309423421150    6.55553180079249
C          -7.16031008919743  -14.60499779210493    7.19616739380254
N          -5.88585347731136  -14.44563331721024    7.54970064679623
S          -5.35890937881909  -15.79831478480964    8.24405579003626
N          -6.71290176995333  -16.65376515968669    8.13224645798428
C          -7.64700248559789  -15.91296854809362    7.54263832851804
C          -8.98238885421551  -16.31356889892736    7.25850839161819
C          -9.78288713690129  -15.35634261268586    6.64174858483439
C          -9.31704064084887  -14.09170900178321    6.30949888596243
C          -9.37597927968526  -17.63546517247012    7.61503997895368
C         -10.55465984837386  -18.27758643322935    7.43319547098432
S         -12.03005262824555  -17.69889655191791    6.69401303015860
C         -12.83661959215141  -19.24490150055671    6.94791953151925
S         -14.37088640900467  -19.55193579485453    6.48854884599090
N         -12.00027912860879  -20.11758606095289    7.55835853285415
C         -12.40895335784308  -21.46354053369719    7.91077066437879
C         -13.15759922829467  -21.48370864089394    9.23721026268403
C         -10.72637075450170  -19.66712633208113    7.86915063883484
O          -9.89279366304215  -20.35402490529616    8.41400233411742
H          -2.66852709817680    6.93114127833937   -0.57374420765165
H          -4.23223051054862    7.50496413213162   -1.23444927683838
H          -3.41050909887063    7.57028898490572    1.71665322717716
H          -3.45965956812126    8.96698892275866    0.63477120939880
H          -4.95852954486450    8.13804571805035    1.06619721187432
H          -2.63042261385570    2.47092987021109    1.21834041735563
H          -7.16884686543251   -0.64604310762288    1.41392191944508
H          -6.29413125111507    1.49379337357789    0.76856137963381
H          -7.92874535943825   -2.65487440729276    1.96691671326855
H         -10.18899148707016   -5.78968347642670    4.33794543216336
H          -8.95930725726734   -4.83733443978573    5.16867869982176
H         -10.70030565860012   -3.81253339034450    2.87341760897012
H         -10.91605722279836   -3.46180707178740    4.58393409687560
H          -9.48161995543963   -2.87630796502897    3.74964818640946
H          -9.82391720764567   -6.60944396851873    2.05137197390274
H          -9.48810100244236   -5.00215527474395    1.39979735100563
H          -7.56895081380080   -7.37555789262220    1.30268645715531
H          -8.51119173857787   -6.74267908726764   -0.04867725665818
H          -7.23006588364152   -5.76484495406228    0.66876749514409
H          -9.13751448689029   -8.15540996712759    4.05817220926827
H          -4.35928998595519   -6.84983538762608    4.82539719016431
H          -3.20303833892107   -9.19906457698310    4.76716181843106
H          -3.45418614171124  -10.83827823521351    5.37545638430871
H          -4.85202553043189   -9.63470409934247    2.93647275683020
H          -3.51008319860056  -10.78011300039818    2.89562570436393
H          -5.07526548548620  -11.27957814830341    3.53606231788023
H          -4.08527451454569   -9.93477655124133    7.57126556806197
H          -3.83245247471772   -8.29325868110740    6.96949172774471
H          -6.41938938998381   -9.34475652117827    8.21504478723572
H          -5.25492255802505   -8.27029753954693    8.98886466609723
H          -6.18245547721770   -7.70924564187120    7.59610008075557
H          -5.48905826348227  -12.40206401315219    6.79066935500701
H         -10.80734565083515  -15.59882865040218    6.40720536043716
H          -9.99725699146178  -13.40322352182132    5.82917536779331
H          -8.60767766213302  -18.22717003269576    8.10119904688317
H         -13.04336016148251  -21.84619295531228    7.10776087848086
H         -11.49270774505195  -22.05457744460062    7.98097990530190
H         -14.06249786663969  -20.88434497014637    9.17019273672811
H         -13.43341993707295  -22.50501329585270    9.48234838684855
H         -12.52714846689196  -21.09055449745025   10.03136326771201
