156
 SCF done       -244.776644081609          0.000315379227
C           2.34224490944210   -2.18094916749027   -0.20866546419348
C           2.61760293922246   -1.39444591687727    0.93576353450807
C           1.67333330426769   -0.52287665264936    1.47255728780356
C           0.43778403676294   -0.48575021882251    0.86989639457612
C           0.14445284587868   -1.31740090352766   -0.23664025271674
C           1.10167179093372   -2.15719240341513   -0.80017292195979
C           3.54344279502079   -3.03363600166041   -0.58310985487138
C           4.46860807795470   -2.74265260235287    0.57084980753907
C           3.92892469845674   -1.75185468091256    1.37581222003211
C           5.70460715389780   -3.19516921654682    1.01355804830061
C           6.12179561620806   -2.55469609064426    2.17041323688278
S           4.95692965493809   -1.34548016237316    2.68743641085290
C          -0.78251574515951    0.32393128354391    1.27965051193367
C          -1.82431353827419   -0.23835737486913    0.34578220814492
C          -1.24005748930311   -1.13489527156398   -0.53516773410941
C          -3.19034273900516   -0.08991239826860    0.14716947727939
C          -3.66898724905015   -0.89085145556021   -0.88019157534859
S          -2.37379361939311   -1.80950734341297   -1.62940026983446
C          -1.06830945367876    0.08248632322958    2.74782426322409
C          -0.65539073946609    1.80616942260912    0.97112638024059
C           3.12214881882209   -4.48218628294537   -0.70672003604020
C           4.25260352017436   -2.54749233817179   -1.83748371497171
C           9.27994898299056   -4.13066817846979    3.74431865619653
C          10.32524193218911   -5.00307410587592    4.08708458283378
C          10.65295859452430   -6.22296289484141    3.56940595784437
C          -8.83935799119369   -0.46752367880729   -0.84242256816975
C         -10.06219806504169   -0.90442116261646   -1.26331666802127
C         -10.44634898492189   -1.89033537569754   -2.25960676224876
N         -11.83073586327180   -2.04281378815935   -2.28897599042783
C         -12.54803230106930   -1.26763967453391   -1.43660853296185
S         -11.50079736286814   -0.23859570732674   -0.49325644389341
C          10.01471889250482   -6.95129673735148    2.49741644701611
N          10.62105917929508   -8.18681896853199    2.30655867997342
C          11.66486599728547   -8.47634024272643    3.12650488600961
S          11.98792670628274   -7.15868307883028    4.22818603931398
C          10.07274879642491   -9.08583973474799    1.30796031041795
O           9.07668863707254   -6.58081261021278    1.81446648270477
C          12.43596974595577   -9.61218105544735    3.16108157735622
C          13.48820998883814   -9.70295834175357    4.09561584788097
C          12.29456651748265  -10.74859381736261    2.34802689918570
C           2.62780732705647   -4.96022466634060   -1.91412994946596
C           2.20385243082139   -6.27017883971940   -2.02930463295394
C           2.25737421939300   -7.13519620459923   -0.94402772929408
C           2.74350927998314   -6.64988904719226    0.26233170586760
C           3.16507558792661   -5.33865736405355    0.38405214034997
C           5.26532347100967   -3.32831078908811   -2.38254036765714
C           5.96863938381189   -2.89367027209350   -3.48849873377523
C           5.68755208919640   -1.66581609255556   -4.07527776004242
C           4.67863871896547   -0.88870659394319   -3.52437551456219
C           3.97134566673288   -1.31868593239078   -2.41551850008521
C          -0.45872921696258    0.87311776621270    3.71409250305474
C          -0.67985859331961    0.63539267904372    5.05713990223184
C          -1.50794956078883   -0.39948768393135    5.47192088819803
C          -2.10588298092647   -1.19342105391052    4.50269701360948
C          -1.88559846029610   -0.96146655638571    3.15755467324537
C          -1.62911436782631    2.67771156633042    1.44535059737176
C          -1.56935415637456    4.02523442995162    1.15043413929326
C          -0.54172103135043    4.53895722865349    0.36869317556793
C           0.42257584443509    3.66325994512900   -0.10929628470959
C           0.36635787570038    2.31154088050608    0.18150111986467
O          -9.72348668320681   -2.53602780079477   -2.99084920083483
C         -12.40925457273151   -2.96855146390249   -3.24535381299085
C         -13.90807335698723   -1.22999790038179   -1.24867032248863
C         -14.44548449848828   -0.35202203657931   -0.28463273199871
C         -14.87354708336803   -1.99412096627023   -1.92416609169438
N          14.34544469283691   -9.78703544133476    4.85329288269070
N          12.23183834494990  -11.71072376983949    1.72296116503261
N         -15.71667587742227   -2.58173179176050   -2.43796501326272
N         -14.89266133015570    0.35801587192902    0.49762337988321
C          -1.79060195121855   -0.62128198441739    6.92966180282246
C          -0.45078065258099    6.01200602753275    0.09308589155036
C           6.42527374539290   -1.21420770472766   -5.30258184232076
C           1.85057276970929   -8.57337687683651   -1.08681247081147
C           3.05187696550515   -9.42767789957417   -1.49687666484869
C           5.72124403008732   -1.71590568823578   -6.56498482966616
C           0.33168763884277    6.71464263197625    1.20453024720874
C          -3.02305482629036    0.17635959013657    7.36089988107963
C           9.10405527398590  -10.08607680318089    1.92766122778142
C         -12.87722119827504   -2.25239293720901   -4.50658221908237
C           9.02687229895903   -2.93790093295957    4.41605187739070
C           7.91613649539787   -2.23529148445683    3.96880052894686
C           7.29241134806808   -2.88542388574230    2.90298520593063
S           8.10021977084942   -4.37012227928229    2.48716245290493
C          -5.03303687869960   -1.02255644527608   -1.24923788643311
S          -6.21011032895392   -0.12050034833136   -0.33804145617762
C          -7.53731374855212   -0.83629638502219   -1.22859148370144
C          -7.04413515057787   -1.70353163510716   -2.18688831563788
C          -5.65515921839134   -1.81832427686281   -2.21046122836269
C           7.51153898067993   -0.91552420425769    4.54668857855242
C           7.94223940642464    0.23762165551574    3.63856122359531
C          -4.95726664685958   -2.68826265432602   -3.20723513023639
C          -4.44155589526936   -1.86491951123783   -4.38908823323951
H           1.90281035001621    0.07665616237069    2.34007154595274
H           0.86285035554624   -2.77749664625024   -1.65031801285439
H           6.28939667338040   -3.96579832907821    0.54480386775549
H          -3.83548947955109    0.54769525197815    0.72455877355121
H          10.94604267997686   -4.65425207225233    4.90502202364268
H          -8.87027983676234    0.27748921156962   -0.05439029690755
H           9.54019215091946   -8.44896960026624    0.59604904559922
H          10.88911855033141   -9.59802954954163    0.79677639837078
H           2.58741734009971   -4.30583653206004   -2.77333008432290
H           1.82532882375883   -6.62640846483048   -2.97700302756113
H           2.79114676524942   -7.30539881570032    1.12025907827172
H           3.53408823617268   -4.98247261569295    1.33486052362170
H           5.49685892675493   -4.28604022432059   -1.93978825649817
H           6.75224718793660   -3.51399046331167   -3.89959759001317
H           4.44408576389325    0.07048871052103   -3.96400300903488
H           3.19554501488465   -0.69071927589528   -2.00236646395732
H           0.18362646713002    1.68823876238535    3.41273765991180
H          -0.20051022394632    1.26308474035579    5.79502016057703
H          -2.75056029502861   -2.00709845241222    4.80334886745344
H          -2.35668050741600   -1.59788793776309    2.42247091607279
H          -2.43225575644063    2.29642708705491    2.05916152423357
H          -2.33343244016409    4.68878157627154    1.52962094389883
H           1.22933556175080    4.04100548451414   -0.72144534211478
H           1.12692264102651    1.65057910746556   -0.20768010663834
H         -11.61238985699976   -3.67445821861412   -3.49565710793041
H         -13.23314475061719   -3.50556109769343   -2.77285513704455
H          -1.96590127489603   -1.68274577979133    7.11588694366524
H          -0.93171691917073   -0.30654612951847    7.52573601833156
H           0.05064273036886    6.18054527707059   -0.86196799061787
H          -1.45341015797021    6.44012208796559    0.03341377391941
H           6.47231786330700   -0.12359033744766   -5.32628697809788
H           7.44643636212268   -1.60017275593116   -5.28313000903527
H           1.45344156441956   -8.94226279553166   -0.13900589068609
H           1.06906856234538   -8.66434166830836   -1.84382363454760
H           3.83825444592173   -9.35764811022760   -0.74871462528581
H           2.76086889753040  -10.47047351294084   -1.59926199918524
H           3.45336176494811   -9.08370655560126   -2.44750905678963
H           4.70498608444372   -1.33055049180285   -6.60962971509488
H           6.25590017387324   -1.39013521421041   -7.45413929903369
H           5.67520282352466   -2.80265633816177   -6.56563994780651
H           1.33917834191568    6.30992887140406    1.27176359517179
H           0.39823596652835    7.78195982671522    1.00732242837277
H          -0.16009698416900    6.56846815764109    2.16365756187314
H          -3.89351907208844   -0.13271660467929    6.78660331081795
H          -3.22921914417645    0.01787714662969    8.41678977170485
H          -2.86312124574339    1.23921576845008    7.19357531839900
H           8.28612957566063   -9.56158337825254    2.41677311694305
H           8.69611770687628  -10.72107088525489    1.14706456877181
H           9.60693199720702  -10.71964970576741    2.65439981638508
H         -12.04148163497660   -1.74217886069826   -4.98022832124751
H         -13.28328675653312   -2.98044768473404   -5.20217293905296
H         -13.65501715448014   -1.52715502195858   -4.27970746707853
H           9.64737577847488   -2.60233580256365    5.22930786941135
H          -7.69182406189905   -2.24750351780081   -2.84897217474206
H           6.43055470491778   -0.88250264619361    4.69258493585408
H           7.98638000097805   -0.80117362918896    5.52280010624465
H           7.47566841372393    0.15153548344213    2.66057876180506
H           7.65239088524508    1.18878241954219    4.07726269363009
H           9.02180010507017    0.22978737670847    3.50621623478816
H          -4.12636576005136   -3.21723801319794   -2.73687564744000
H          -5.66822603320106   -3.43113772016705   -3.57224886922843
H          -3.73589092184073   -1.10830672275279   -4.05474703722789
H          -3.94080718355545   -2.51112726084426   -5.10512233491144
H          -5.26973916921316   -1.36758853347964   -4.88857293849684
