160
 SCF done       -272.759513543154          0.000748430427
C           2.18108215834728   -2.91568311972905    0.67263239315653
C           2.17052739959906   -2.36436006521805    1.97439634524222
C           1.11693285298317   -1.57773050647984    2.42958996242920
C           0.06668603059654   -1.37219635680311    1.56537803579848
C           0.05601892057312   -1.96147589597080    0.27952357002383
C           1.11949731728667   -2.73061689518088   -0.18290152910888
C           3.44619318085611   -3.72556659669296    0.43575017157158
C           4.11295334450760   -3.61526380543996    1.78376870313225
C           3.36558373107251   -2.80990385717710    2.62319572436086
C           5.26703828493477   -4.11918989193434    2.38154562196091
C           5.38369852610145   -3.71069322968176    3.69443528546993
S           4.07045300249708   -2.65837837117964    4.18169373074590
C          -1.21088786438966   -0.58668144282348    1.81432651729404
C          -1.96793826738527   -0.86437111406216    0.54094325851183
C          -1.19454825954852   -1.61517269679348   -0.32495003334967
C          -3.19851528576171   -0.49092894334503    0.00542351630737
C          -3.36299591184650   -0.96509288358226   -1.27959024753410
S          -1.98076970906902   -1.89146064034921   -1.82771766194625
C           6.37480074290377   -4.10673356263067    4.63978363690252
C          -4.48287772952297   -0.74247037592027   -2.13332875920381
C          -1.87126177967620   -1.11203063939488    3.07048132722818
C          -1.01517593840517    0.91838199571294    1.85106491978657
C           3.05757304548329   -5.14478765746914    0.07116840064731
C           4.37973040609509   -3.11365790430738   -0.59251236062600
C           2.83634855123771   -5.49190616938780   -1.25566529345517
C           2.45244625762104   -6.77657226724459   -1.59015150003642
C           2.27440416363025   -7.74644768488502   -0.61211624722244
C           2.48176434872700   -7.39093557331701    0.71363123751085
C           2.86000797774009   -6.10520543850741    1.05359995579428
C           4.21395945346152   -1.81880505636654   -1.06068000986342
C           5.11167935341095   -1.28110341846949   -1.96601047047283
C           6.19665904920899   -2.01663977455873   -2.42084520929690
C           6.36664922077974   -3.30806138023942   -1.93711511089888
C           5.47345535346190   -3.84958526574857   -1.03405912754830
C          -1.52916902331433   -0.58700005152036    4.31025987956165
C          -2.08507947084898   -1.10039344230252    5.46663262294622
C          -2.98950616067771   -2.15305303473747    5.41700428238756
C          -3.32502962757728   -2.67632316630194    4.17548669206794
C          -2.77036704931879   -2.16771262976302    3.01583911854400
C          -2.07677936493094    1.72405882730610    2.24815376258844
C          -1.97096817210898    3.09962114246205    2.19842021786272
C          -0.80607614669584    3.70914720337532    1.74765660659406
C           0.25064357796926    2.90074408158241    1.35461728217689
C           0.14971329648173    1.52119133169564    1.40145855803332
C          -3.62640388091965   -2.68122993273913    6.67012007129354
C          -0.72183565737380    5.20410567196947    1.63511858347769
C           7.19251895649564   -1.41629666660051   -3.37102252342831
C           1.91585309341626   -9.15628925496426   -0.98428030508301
C           8.33661894061521   -0.75570482159616   -2.59923822988725
C           3.18109968106950   -9.97971126822404   -1.23401293954138
C          -4.94080448405783   -1.95048613239930    6.95164912288994
C          -1.33464032591840    5.67224451366848    0.31344892214856
S          -4.72046814980896   -1.65899339184291   -3.59466085600472
C          -6.13961629202394   -0.79710692366839   -3.97289361124526
C          -6.47052197466278    0.13475074277325   -3.01632419579392
C          -5.51038877572963    0.15880131081470   -1.95287000904764
S           6.52500850150739   -3.31212310920374    6.18176486485397
C           7.75186362429902   -4.38414199117277    6.67796606392819
C           8.09211267628135   -5.29381693621729    5.70479671532826
C           7.30073637375830   -5.12216931001534    4.52276967607290
O           7.44072941884992   -5.88071393305392    3.40174764883682
C           7.14713807133103   -7.26904870295345    3.53291600223504
C           5.65689396669965   -7.53559319763969    3.69376886697401
C           9.15568477373217   -6.24991475441828    5.80188106400178
C           9.60488297182885   -6.89871920744653    6.90283719954132
C          10.94571192736298   -7.54577244465520    6.88819981247225
C          11.26759983269051   -7.78691573924788    8.31186928871145
C          10.16179088527197   -7.44080616751967    9.11078904106835
C           9.06206333133190   -7.02653451153521    8.24375805791209
C          12.44092741264714   -8.25800474550310    8.86529325113557
C          12.51784570841915   -8.37641436854398   10.24748311325462
C          11.42627294967443   -8.02053094226794   11.04958320930333
C          10.24228899380516   -7.55534200484266   10.48881525116881
O          11.62847972860744   -7.78051643886221    5.92024956357695
C           7.74031918499786   -7.00715784221519    8.59497678671159
C           6.68004895854132   -6.87058754198414    7.67474587406520
C           7.27366715746119   -7.21679384863036    9.91026656364737
N           6.84518002038975   -7.36485695935650   10.96414710828239
N           5.76911718535995   -6.83098254804441    6.97781424463726
Cl         11.54244933947195   -8.15746513619029   12.75655130515569
Cl         13.95952017688095   -8.95971442366917   10.97317007270314
O          -5.60063625347628    0.99089622980741   -0.87872036180121
C          -5.42113411908080    2.37963675849167   -1.14821396773208
C          -3.99349712521056    2.71830629572215   -1.55532677514097
C          -7.66789319765196    0.91870267073621   -2.98628711662611
C          -8.42647573841722    1.35459230508666   -4.02075993780837
C          -9.83373710352538    1.77778940600598   -3.78137345006956
C         -10.46438851069209    1.77080030029611   -5.12019127524821
C          -9.48869151150362    1.50938679800024   -6.10030367162661
C          -8.18557981416596    1.39783346399443   -5.45108892435204
C         -11.79034733697072    1.96081054045685   -5.45242970410379
C         -12.15364919352931    1.87704784938581   -6.79090590646075
C         -11.18996934797714    1.60525109446656   -7.77014744053039
C          -9.85308631601960    1.42458982133571   -7.43374090886850
O         -10.34800456354754    2.02688888420942   -2.71772093241202
C          -6.97261595005346    1.55710039293377   -6.06349198918754
C          -5.76228601537704    1.71622253094691   -5.35650317413476
C          -6.80617270345055    1.67216910434645   -7.45944299731347
N          -4.76059911079368    1.91056941871622   -4.83136072496207
N          -6.61803576535786    1.75450738906155   -8.58816001621807
Cl        -13.79343305330158    2.10558304770482   -7.24340451707249
Cl        -11.65827911048670    1.48973920091589   -9.41729619598513
H           1.12795332617604   -1.15896940626465    3.42415166732830
H           1.09955144743752   -3.16704492301557   -1.16979239896289
H           5.99334103164602   -4.75230797155608    1.90875444585134
H          -3.95402627309815    0.08038853456877    0.50991039669066
H           2.97703765066442   -4.75512625538087   -2.03345964591754
H           2.28756536249006   -7.02970332722007   -2.62796721218899
H           2.34188201794335   -8.12735562664772    1.49247920059995
H           3.00106455412498   -5.84836495853295    2.09352211299377
H           3.37787319772990   -1.22465961177334   -0.72235468651341
H           4.96255723756285   -0.27285267937366   -2.32593721233788
H           7.20782260969189   -3.89703489873297   -2.27436333091961
H           5.61735352383374   -4.85828991404419   -0.67495379482483
H          -0.83061534007605    0.23554073700643    4.36964581049171
H          -1.80869272203986   -0.67952662874187    6.42310576763992
H          -4.02578542243372   -3.49703821863119    4.11488096573328
H          -3.03946978802821   -2.59509076035071    2.06075259108152
H          -2.98924498579835    1.26642894105846    2.60202929004932
H          -2.80556762062368    3.71119240581404    2.51107680726275
H           1.16640045136219    3.35401942871245    1.00225812820179
H           0.98382729670959    0.91311510451746    1.08331546293570
H          -3.82511948990978   -3.74950006826187    6.56180645212676
H          -2.94969761401973   -2.54365595424961    7.51580233847106
H          -1.25868813056199    5.66940131191382    2.46460698705910
H           0.32138660545127    5.52215073790228    1.68201899355477
H           7.59950257916131   -2.19391426970878   -4.02077193281676
H           6.70253596114508   -0.66875273236503   -3.99810357128242
H           1.33960803678340   -9.61705964984895   -0.17944019200450
H           1.30262252577818   -9.15642638365571   -1.88765838857768
H           8.84492771608681   -1.48815786376716   -1.97611231733676
H           9.05947337374630   -0.32177040363906   -3.28628702871061
H           7.95232603399261    0.03205394960333   -1.95502582268512
H           3.79947692137791  -10.00298384032904   -0.33932694529747
H           2.92431342354439  -11.00097446038338   -1.50575090014389
H           3.76400445937393   -9.54135517044696   -2.04109283146396
H          -5.63354554580189   -2.08597199866258    6.12400396725597
H          -5.40328985873956   -2.33347262687779    7.85840761449071
H          -4.76159013302955   -0.88477951060888    7.07610807199671
H          -2.38130906720331    5.38132005346627    0.25804982730187
H          -1.26908850746343    6.75418310804017    0.22461199909631
H          -0.81078438469026    5.22142064003678   -0.52652115718090
H          -6.71017011784115   -1.07377221208294   -4.83769278375352
H           8.22623697065423   -4.24380352572408    7.62949801589003
H           7.52560875454853   -7.71304680997842    2.60896875536868
H           7.69660217547207   -7.69299145623691    4.38423788610413
H           5.10453287483356   -7.11438215149820    2.85748294128193
H           5.48423222905418   -8.60776722002727    3.72833455304414
H           5.29454554492038   -7.09421692953749    4.61940657412684
H           9.71974797528975   -6.41842855278760    4.88884915732953
H          13.27560513634541   -8.52763846664291    8.23773434997440
H           9.42202296998558   -7.28659562602992   11.13449320444892
H          -5.68634607033054    2.87003150659231   -0.20870424020396
H          -6.11932976286679    2.70392457892412   -1.93184734637149
H          -3.75038253613417    2.24245705928517   -2.50255950383240
H          -3.89905354139298    3.79392666162330   -1.67543659326082
H          -3.28947034784913    2.38261071150977   -0.79704747447051
H          -8.06290232972084    1.11864624161739   -1.99405610656252
H         -12.52430025749406    2.16889579406604   -4.69002687990475
H          -9.13590844217889    1.21327123848791   -8.21040646744002
