144
 SCF done       -240.278693851859          0.000869091733
C           0.00465262917145    1.30870519086207    0.21181533797591
C          -0.19837855108344    1.57905942330825   -1.11738198331903
C           0.66426429265838    2.37764017422482   -1.96632150293625
C           0.10008974420875    2.34422211554690   -3.31657366414913
C          -1.07530751273351    1.57273304767486   -3.29856251816280
C          -1.31177495495718    1.07670434440218   -1.93138033707292
O          -2.24886414419674    0.39039009201156   -1.56336758257659
C           1.80540614889660    3.04574602614231   -1.60490554166129
C           2.59889150405393    3.80014640530228   -2.49513966305983
N           3.29339832569547    4.42817075792489   -3.15947299972979
C           2.36377234829356    3.08927296841899   -0.31029508643023
N           2.88539571082840    3.17870263882636    0.70958773461315
C           0.52644842490389    2.90952380908131   -4.50794008583047
C          -0.22928607092029    2.69247238474356   -5.65339657504852
C          -1.38830931297145    1.93089854376015   -5.62527086038049
C          -1.82541809252267    1.35997475474194   -4.43806625260946
C          -6.47050798637868  -16.00455418564615    8.00382199921237
C          -5.66455394881214  -16.71821494479142    8.85357372379160
C          -5.64957297683008  -18.16035483910781    9.00383962961558
C          -4.59584451911226  -18.48803501066304    9.96550582133994
C          -3.99587779506285  -17.29499990758976   10.40578550351873
C          -4.64287269112140  -16.14998263974860    9.74124270818492
C          -4.14025412022049  -19.70170315238779   10.45556108215696
C          -3.09653518712576  -19.69746180906704   11.37258003454750
C          -2.51127232887881  -18.51514952408630   11.80120586549289
C          -2.95971821167690  -17.29357192242190   11.31835786727327
O          -4.37624684171394  -14.97267655383674    9.90686282841927
C          -6.45282286490809  -19.07419666535652    8.37229107738332
C          -6.37443729993041  -20.46936816211490    8.56881752264459
C          -7.47119151821884  -18.77762530846062    7.44241062242782
N          -8.31734716263433  -18.62764986504591    6.67967811276056
N          -6.36144990103019  -21.61302362820387    8.66865482800712
C          -0.72188055500046    0.49961744956345    1.09723973594596
S          -2.19251186358135   -0.40113488212897    0.73603132376148
C          -2.18080370413114   -1.07114444071809    2.32146426768504
C          -1.09497638144976   -0.60679037500246    3.08897511027202
C          -0.28700275995912    0.28001212750234    2.40720941403920
C          -2.94037291088103   -2.01237530627746    3.01871741286666
C          -2.42916083332286   -2.27665412846992    4.30220365772316
S          -1.02355411857136   -1.32406871483488    4.67965222206257
S          -4.31600433490506   -2.99882497821224    2.63042528548535
C          -4.15891744272702   -3.78495101819959    4.16290826856438
C          -3.11947937373112   -3.30213088309612    4.94173158700989
C          -4.76648470989610   -4.91968720985333    4.78551655008919
C          -4.06511268071627   -5.15145951454776    5.99291794790428
C          -3.04307143001925   -4.05574481658932    6.24307201834572
C          -5.78579627416210   -5.76467866622567    4.35460611651805
C          -6.03180386703307   -6.88540983352357    5.11216035723403
C          -5.25068220384126   -7.17576697235173    6.25630696824773
C          -4.28642158026474   -6.29035882634464    6.73086350685385
C          -7.03325702146432   -7.99586815417141    4.84507252473218
C          -6.58321089787065   -9.02317190959201    5.84958728215252
C          -5.60763254146644   -8.49420486315853    6.67945026608064
C          -6.85968155386417  -10.35144416894387    6.15990284779401
C          -6.05920055281755  -10.82845316933497    7.21357368673762
S          -5.00423750181685   -9.60801979075342    7.85708514201469
S          -7.88591572076167  -11.58031682548521    5.48008464363823
C          -7.19962522230821  -12.74846209341000    6.58189349834617
C          -6.24159429962585  -12.19202771798856    7.45156498750684
C          -7.36050291988837  -14.10875079508485    6.74845214155064
C          -6.51649496169646  -14.62935205418800    7.73327273935535
S          -5.53174760794214  -13.37445065505886    8.48164322861671
C          -1.68865909108137   -4.66181219245988    6.54060805313497
C          -3.47321620341176   -3.07941214781687    7.32843942766754
C          -8.45647903384671   -7.61638006169897    5.22828617575779
C          -6.94468960000412   -8.44429396606674    3.40237038539807
C          -4.75342324515669   -3.08371128109114    7.86143808706732
C          -5.12062649510635   -2.13929924748281    8.80363987187865
C          -4.22759243778405   -1.16488907033906    9.22650026692713
C          -2.94758864733801   -1.16394410673603    8.68561955491859
C          -2.57426613739978   -2.10548229121341    7.74707295742275
C          -0.79432843396022   -4.95532705245454    5.52142011438325
C           0.42722990973972   -5.53676238349306    5.80708294962108
C           0.77930573161362   -5.85397556682277    7.11170534123955
C          -0.12725860129543   -5.57450805933391    8.12628661624888
C          -1.34633392487381   -4.98782344285037    7.84703128936496
C          -8.74806976349883   -6.46187254340365    5.93892960563547
C         -10.05001574370644   -6.18456535775517    6.31660693720043
C         -11.08616765622372   -7.05395138919613    6.00635137043114
C         -10.78638951301196   -8.21120588424350    5.29786427506374
C          -9.48961815409561   -8.49204703394995    4.91557998664992
C          -6.06922145176440   -9.44825077415969    3.01482299440391
C          -5.97965394061511   -9.82586602583186    1.68763913058320
C          -6.74727747419520   -9.20145707449291    0.71430306349169
C          -7.60847652603306   -8.18411988858876    1.10517082135382
C          -7.70668814638541   -7.80761766471058    2.43059145562147
C          -4.61872173602663   -0.16578810263303   10.27674700027851
C          -4.29320480069613   -0.70172211571732   11.67240890420478
C           2.12590948492714   -6.43761578343627    7.42733649630365
C           3.12962354928330   -5.32401622150575    7.73342825271387
C         -12.50263091322495   -6.73012797166309    6.38446581215543
C         -13.18767320153074   -5.94149419761803    5.26649571820180
C          -6.68904592375043   -9.64663713195166   -0.71816977359044
C          -7.75392036651116  -10.71199558598597   -0.98710045063578
H           0.87792226998181    1.75470947846189    0.67236958519144
H           1.42270607373025    3.50508170181701   -4.56293700498635
H           0.09770756448169    3.12829548168218   -6.58553372107544
H          -1.95221851398939    1.78131840586184   -6.53363135468651
H          -2.72299003478240    0.76267348538529   -4.39125382920756
H          -7.17600850448631  -16.57226114359453    7.40915919242380
H          -4.57306599883565  -20.63716283512986   10.14159015719115
H          -2.73511388297999  -20.63933242428467   11.75729210011029
H          -1.70127397529688  -18.54708397543214   12.51420741064909
H          -2.51982271919542  -16.36075160076005   11.63605467013924
H           0.59450662483784    0.74403780498971    2.81139051755308
H          -6.33076567325867   -5.55965081894771    3.44614934292218
H          -3.71814504325664   -6.51234576493080    7.62088488444502
H          -8.03672472741088  -14.72180515587184    6.18045151599474
H          -5.47018185406668   -3.82662010947480    7.54361402371761
H          -6.12151373266713   -2.15823669951090    9.21113348990777
H          -2.23632365753183   -0.41305051650541    8.99819729055613
H          -1.57507328871517   -2.08958890156867    7.33604356691502
H          -1.05055937244015   -4.72976020513506    4.49632120782117
H           1.11548244661760   -5.75048311370774    5.00177034156428
H           0.12405781750543   -5.82005231249352    9.14833560270183
H          -2.03479036085442   -4.77075356904618    8.65122607267113
H          -7.95878276050153   -5.77213285478066    6.19960533972398
H         -10.26074195661470   -5.27879983455653    6.86739448900791
H         -11.57687615590358   -8.90398794524653    5.04761479230778
H          -9.27411794615793   -9.39679055564349    4.36550912813131
H          -5.45163948073445   -9.94075287398802    3.75197199661466
H          -5.29903206312073  -10.61616761415031    1.40466500317079
H          -8.20969321141553   -7.67967738129029    0.36213440468093
H          -8.38895738377632   -7.01967856992338    2.71602911172232
H          -4.07935658177396    0.76975043705563   10.11612624151954
H          -5.68890399552077    0.04066235294609   10.21133977980622
H          -3.22776696160935   -0.90171108914834   11.76154986932089
H          -4.57594517612407    0.02185149060760   12.43336224777112
H          -4.83178222027877   -1.62863898731477   11.85679054950256
H           2.04881225932714   -7.10000292040249    8.29195133514880
H           2.48496579074542   -7.02306074896193    6.57866777056883
H           2.79369887482966   -4.73555569464959    8.58432918773084
H           4.10572685797421   -5.74394962060466    7.96460971257842
H           3.23018287378196   -4.66013256762918    6.87772121270870
H         -13.05720853324128   -7.65305134999449    6.56511674059700
H         -12.51510840893505   -6.13826112940355    7.30190257118689
H         -13.19724536077775   -6.52102103706712    4.34608995215133
H         -14.21360678199076   -5.70661970194968    5.54007580234035
H         -12.65604156118516   -5.01112459623756    5.07934073850662
H          -6.85901339214494   -8.79354283977423   -1.37820066267246
H          -5.70267776939054  -10.05909250392086   -0.93910628797799
H          -8.74613924307438  -10.31407770055830   -0.78631465229737
H          -7.71324728378547  -11.03822145277671   -2.02366901341332
H          -7.59579270869193  -11.57497967646069   -0.34416750091040
