145
 SCF done       -240.177884094172          0.003374086803
C           3.13202368531069    1.11443276729050   -2.16031503246466
C           2.74503017087256    0.93362558603348   -0.84069300354681
C           2.94854145151206    2.47344041929625   -2.56180788545217
C           2.42553203860672    3.16433775256341   -1.44349988888830
C           2.44684573776935    2.27328192458394   -0.20602937211856
C           1.10155208149842    2.28760625971508    0.49244290268139
C           3.59266254724588    2.72041487318520    0.69249081716243
C           3.04819684666107    3.06720776300728   -3.81748930317188
C           2.52598648390891    4.33152395900913   -3.95780811038480
C           1.90204580926483    4.97760547186031   -2.86318247854213
C           1.88035104749567    4.41674854937216   -1.58722165826437
C           2.38627992397555    5.16053838789891   -5.22408392231540
C           1.41512395097733    6.21799713945086   -4.76225606964171
C           1.25115802765813    6.13571084130857   -3.38093733705581
C           3.65931259392593    5.91938448391572   -5.57764357597159
C           1.92382272119341    4.29008164085296   -6.37131408757661
C           0.67175154981437    7.23080719771292   -5.34299352935884
C          -0.07879517331554    7.93350074179991   -4.40607875172717
S           0.22418793338953    7.35385999212601   -2.76678471942568
C           1.96973325793423   -6.15161585090563   -0.25922021798192
C           1.22803476804995   -6.90721440492620    0.61639622901403
C           1.01035624678704   -8.33182742919932    0.44369981461494
C          -0.10155239449093   -8.72054262781491    1.31098958901620
C          -0.46624300446636   -7.61111618872126    2.09100912254424
C           0.38001135173940   -6.45196320191912    1.73716336548343
C          -0.78260910396000   -9.91817956391824    1.45080975467202
C          -1.81171934645002   -9.95578449196738    2.38181200530932
C          -2.17382760827377   -8.87039644991144    3.16564523123037
C          -1.48858083315932   -7.67493102682578    3.01856486338350
O           0.34289869027550   -5.36558826762450    2.28165561646846
C           1.74386648490531   -9.19620981942539   -0.32570393553766
C           2.89674310814035   -8.86084490289743   -1.06868588222077
C           1.47279697317408  -10.57684675651542   -0.43636328182783
N           1.30974022725192  -11.70424243932049   -0.57901742438645
N           3.85596267593954   -8.67766929429044   -1.67338974142748
F          -2.49433711335298  -11.10332967753079    2.52816558110931
C          -1.01461227394844    8.97138920631058   -4.56211033405589
C          -1.81076788425427    9.21933336174329   -5.65007689004530
C          -2.72703102541659   10.33358121763014   -5.77028758986989
C          -3.69061083754163   10.00468385246062   -6.81902582762665
C          -3.31934286526928    8.78033678516153   -7.40001105545230
C          -2.10122580660871    8.26109641520766   -6.74117771492129
O          -1.52819087198487    7.22849421085298   -7.01681974551156
C          -2.65679364443414   11.52110513444305   -5.09088798541626
C          -1.65661340121868   11.84023906542471   -4.14748735485228
N          -0.86217830840495   12.16864955264019   -3.38641474925185
C          -3.53804649758215   12.60308628263695   -5.29537606656151
N          -4.21476051589042   13.51996786908552   -5.42498492766341
C          -4.82514774853758   10.66509552627311   -7.25946456408101
C          -5.55053542691054   10.06367636214813   -8.27929939400704
C          -5.19132249298447    8.85881415841521   -8.86511016580119
C          -4.05533225721558    8.20332330387220   -8.41743649873292
F          -6.66204709160711   10.67757216391930   -8.71657918578404
C           0.58237038312082    4.17059126482049   -6.70293963553738
C           0.18972384315822    3.32138850525134   -7.72212386056870
C           1.11858140327803    2.56474865371918   -8.42298674880927
C           2.46089985291589    2.69075594802697   -8.08751539386106
C           2.86029278960174    3.54128614312787   -7.07532565100014
C           4.71242924263597    6.04956382445045   -4.68485790566799
C           5.81289134509872    6.82259890575828   -5.01148069903716
C           5.88444431839206    7.48965777042324   -6.22609988108519
C           4.82982695009076    7.34634213082602   -7.12004424369625
C           3.72913657106575    6.57634008545278   -6.80045007592321
C           0.94862789110280    2.60752582117410    1.83490937627186
C          -0.30715564795878    2.60529198760513    2.41654266440527
C          -1.43692018701696    2.27803853890313    1.68047829383687
C          -1.27787724759593    1.94975979328297    0.33905297426446
C          -0.02808083857145    1.95385546854676   -0.24774055255700
C           4.59755017387348    1.84711128375895    1.08501737682105
C           5.62226465791549    2.27261534022566    1.91197433127793
C           5.68065645446802    3.58303258789962    2.36334151953020
C           4.67950914917272    4.45836777725090    1.96129463129491
C           3.65320856631442    4.03637768870910    1.13901199004012
C           2.69124714471327   -0.42412580815816   -0.51036127382506
C           3.05687789486524   -1.24390436193266   -1.61535205296225
S           3.48652513494547   -0.34001022636216   -3.03135529607145
N           2.29286686406871   -1.21452155607291    0.53222441593346
C           2.37148608300339   -2.51744602014032    0.11061440655194
C           2.85856277342672   -2.56221611894023   -1.22429699534035
C           1.86949558934078   -0.80968616681595    1.84981831277874
C           2.95521878173620   -1.05966790926641    2.89398800061094
C           2.02503230140205   -3.75701221464926    0.62481021886889
C           2.23537132887218   -4.77524433922709   -0.29722492703869
S           2.92997351736607   -4.16942657205848   -1.81767210680454
C           6.76539321349972    4.03263406249250    3.29813460740885
C           6.33231968261322    3.83726509827847    4.75258664571487
C          -2.80134961936750    2.33222088591641    2.30295933675818
C          -3.41912501641262    3.71820642034195    2.10409212512995
C           0.69390430738096    1.67067682822610   -9.55221291090100
C           0.74117464930549    2.42831166093999  -10.88062943435827
C           7.08385016940771    8.31950781825151   -6.58296297136819
C           8.10457454587574    7.49158505589740   -7.36564850343253
H           3.46160365461415    2.52358851797498   -4.65256175313428
H           1.38122476902246    4.92786005469037   -0.77807837229157
H           0.66189980665562    7.46588583135381   -6.38959294905180
H           2.36877075564805   -6.68279263963305   -1.11613486206252
H          -0.55642320603192  -10.79877326818226    0.87290483879068
H          -2.98257275699324   -8.97463443662918    3.87126039598653
H          -1.74175709307945   -6.80631880608022    3.60618455374867
H          -1.17111156612629    9.58160896851670   -3.67977862229586
H          -5.16313038716790   11.59945150654299   -6.84277230279538
H          -5.80350506380519    8.45195518268657   -9.65428619497798
H          -3.74492089976526    7.26224564503466   -8.84351586981153
H          -0.16147160791868    4.75023437144564   -6.17756576246654
H          -0.85862640752244    3.24528525806026   -7.97261166010233
H           3.20163813964798    2.11447158366076   -8.62371548186008
H           3.91028169507323    3.63597492485390   -6.83593010255633
H           4.67727325206613    5.55010832080015   -3.72740283713251
H           6.62381126544424    6.91573455629924   -4.30299765153349
H           4.86670926036280    7.85409561923485   -8.07324188153468
H           2.91488134646771    6.48011249926771   -7.50384571139370
H           1.81019641285094    2.85895661412539    2.43598341681658
H          -0.40631013395323    2.86102379807484    3.46185990007070
H          -2.14361704920181    1.68823982387331   -0.25222101363722
H           0.07847960338321    1.69893579344979   -1.29301887494425
H           4.59423163850526    0.82392213253714    0.74056725053602
H           6.39160250937236    1.57225512895020    2.20582669109852
H           4.70417121292380    5.48613265247258    2.29440001290151
H           2.88921455955461    4.73976129989150    0.84781339654484
H           1.61443788722183    0.25042979362136    1.81581316498160
H           0.97022536135376   -1.37801432355985    2.10801612355144
H           3.85040616373808   -0.48773113572627    2.66051895837716
H           2.59538146578126   -0.75407037579332    3.87210219884815
H           3.21284244980143   -2.11564166214983    2.93128646330565
H           1.61667581674391   -3.94141101794528    1.60039370403969
H           7.67547303032524    3.45895285993070    3.11332389252451
H           6.98519400707224    5.08815671606224    3.12774376907054
H           6.11820039382416    2.78865633612036    4.94685399519502
H           7.11858109297404    4.16201109545081    5.42986861376676
H           5.43436101599428    4.41456277586359    4.96139417662734
H          -3.44807794575520    1.58039342961589    1.84639086015494
H          -2.73014321867424    2.11999563269157    3.37163026338242
H          -3.51506913710664    3.94137039872009    1.04371406194479
H          -4.40518042762090    3.76417951996430    2.55983567782824
H          -2.79045654619898    4.48096836336476    2.55812519922881
H           1.35763603347187    0.80522418676027   -9.60816049928319
H          -0.32238868801612    1.31142016402322   -9.37846213528629
H           1.75167440077874    2.77756522798261  -11.08109597659003
H           0.42775475315264    1.78362796185515  -11.69848735652253
H           0.08170053012870    3.29247839972865  -10.84571403028123
H           6.77273199749366    9.17236325859121   -7.18999646161144
H           7.55179152664732    8.70082764689624   -5.67336495651185
H           7.66251630091069    7.11534130472219   -8.28521738808645
H           8.97026926554535    8.09866692334921   -7.61944237220463
H           8.43741487838414    6.64226170916573   -6.77305423447266
