218
 SCF done       -356.949126546687          0.000928217025
C          -2.90356588134994   -0.64942380483736   -3.48468914834210
C          -3.07380096270744   -0.00004832429044   -2.26016868781763
C          -3.63584851520929    0.02979265960346   -4.47813534856394
C          -4.29326679441348    1.12384528922436   -3.87922801948200
C          -3.96572015930741    1.20898324273300   -2.40478394920764
C          -3.26497998190495    2.53014682004940   -2.14722189572626
C          -5.15391206633912    1.02029284522084   -1.47931377425086
C          -4.02691828071246    3.68643217042865   -2.03306659449681
C          -3.41673676967182    4.91047432169294   -1.84312770378727
C          -2.03295621309896    5.01336611901743   -1.76713703546547
C          -1.27799039600779    3.85495906958873   -1.88430463443002
C          -1.88362343306731    2.62635868266787   -2.07837307645403
C          -6.34424008816353    0.46236551450295   -1.92057152267195
C          -7.38517229738487    0.24859211643009   -1.03463404526239
C          -7.25755651787281    0.56903996727109    0.30972734536176
C          -6.05937500038014    1.12091413542773    0.74609529928661
C          -5.01959688522747    1.34431871518892   -0.13469346832618
C          -1.37558677612224    6.33937434467699   -1.51554390270913
C          -1.25467496347378    6.59873761913028   -0.01245594618904
C          -8.39978536120292    0.36971417683107    1.26347353534216
C          -9.23048962773834    1.64944305325236    1.37807498466521
S          -3.96315488494325   -0.13320640251484   -6.14674674561590
C          -5.00352491935336    1.28919809735461   -6.07672477432718
C          -5.04529835638690    1.83381512628876   -4.77848504285566
C          -5.74097209498639    1.83701530427214   -7.12468728828651
C          -5.87538331063159    1.43429899368558   -8.43696267620324
C          -5.21498494795632    0.28127694381743   -9.04480034332920
C          -5.68797359843021    0.23197190491036  -10.44534235282369
C          -6.57508546134483    1.29708543607694  -10.67185489591877
C          -6.70756288860731    2.06975076867881   -9.43357608848022
O          -4.43202028989151   -0.49592445762449   -8.52757867306014
C          -7.49324841327764    3.18558237017860   -9.28695340496395
C          -7.63885723168817    3.94518279785769   -8.10799026441425
C          -8.28235780562913    3.73756736307390  -10.31752600597821
N          -7.82191726423694    4.61570752432095   -7.19288097898451
N          -8.94122159946623    4.24164698029916  -11.11131592018612
C          -5.36321630959626   -0.67931030997417  -11.42938258888405
C          -5.94798712399723   -0.51418643928127  -12.67499255982379
C          -6.82999585365168    0.53931469749131  -12.91070183859712
C          -7.15495811450933    1.45532081912892  -11.92021813041499
F          -5.66388242787963   -1.37571718329647  -13.66078494766526
F          -7.38164089140967    0.67482664173161  -14.12297892543431
C           0.31701197395771  -11.52025493704623   11.91842086907353
C          -0.08226314293665  -11.37323886897691   13.23031853363511
C          -0.51949002071412  -10.12504975339606   13.85153032456923
C          -0.85765670794655  -10.46296457269627   15.25123572307457
C          -0.63426389545805  -11.83338644230325   15.46323995287961
C          -0.14727119620484  -12.42874445081550   14.21579095271869
O          -0.59789175896939   -9.02001477778733   13.34415696457097
C           0.17071075960225  -13.75388386910268   14.05198392224650
C           0.63217513904861  -14.35242490267322   12.86161168809834
C           0.07466026197390  -14.72202247316650   15.07324337953359
N           1.01322735547744  -14.92138816256967   11.93873966009173
N           0.01567710838845  -15.56005332616670   15.85564243550761
C          -1.32450090677777   -9.62935478543141   16.24690515305705
C          -1.57353593113963  -10.19067988959772   17.48937206547653
C          -1.35517917626024  -11.54961006369425   17.71074674981438
C          -0.88531937010893  -12.38652506693737   16.70848915064305
F          -1.60446588981527  -12.06605899587215   18.92043246229533
F          -2.02884892307691   -9.42014461401136   18.48617610319705
C           1.00475537957799   -3.76363417403978   -1.00904995121051
C          -1.20988834312324   -4.94859539073448   -1.10894541229476
C           1.62243084582325   -2.54931410155843   -1.27127157067683
C           2.92514743978995   -2.50996032688471   -1.73339472835492
C           3.64621134899089   -3.67801226912088   -1.93809779453731
C           3.02788685197337   -4.89057618630284   -1.66095766431123
C           1.72534988847388   -4.93548449703033   -1.20269389396737
C          -1.10721910284388   -5.15227726781707   -2.47996494838206
C          -1.86174293859450   -6.12727743579776   -3.10258595752175
C          -2.74094492714821   -6.92020256319589   -2.37590592895289
C          -2.84829915024516   -6.70355891521928   -1.00904643773973
C          -2.09983836623125   -5.72445416253975   -0.38074749736492
C           5.07436161478894   -3.62847403314143   -2.39848648108695
C           6.01869262710872   -3.52132736805683   -1.19935571719297
C          -3.51820892195290   -8.01665540648363   -3.04499142471507
C          -2.71674282547255   -9.32004842000852   -3.03439865946195
C           2.50026733733753  -10.06637369517060    6.96530513498312
C           0.11682772901703  -10.46153674551234    6.28786891350326
C           3.48957923713177   -9.09757072988558    6.89762577189129
C           4.80881440108726   -9.46055763263201    6.69220824227952
C           5.17065936807710  -10.79330212542038    6.55645074224912
C           4.17519920288485  -11.75978421603200    6.63650853535427
C           2.85667440846016  -11.40348298718843    6.83869515510602
C           0.45691970539728  -10.57461481845751    4.94543327963129
C          -0.40241135201236  -11.18857248768190    4.05537597608621
C          -1.62182900552135  -11.70158325657663    4.47964994671321
C          -1.95600481602029  -11.58348139730833    5.82176582357099
C          -1.10254150943593  -10.96408501551589    6.71704174018511
C           6.60836637669043  -11.18807718674878    6.38085679288296
C           7.25936033837527  -11.44834975965639    7.74087908073565
C          -2.53253817402926  -12.40888373606319    3.51824859673608
C          -2.18493267001914  -13.89736102083065    3.45103715475594
C           0.58835355433374   -2.83995290989586    5.99669642751395
C          -1.84269314939475   -3.45275440711877    5.83437277297737
C           1.59272761122325   -2.19933864746702    5.28671744819820
C           2.54723452001393   -1.44967765189353    5.95124257364055
C           2.53072711308790   -1.33220199717028    7.33400639243898
C           1.52618983577017   -1.98334700826842    8.03966643675297
C           0.56855077365284   -2.72991866711737    7.38216065549373
C          -2.76686153815565   -4.47803846040647    5.97467592346365
C          -4.05079531314037   -4.20939647693417    6.41214664741113
C          -4.44866226654516   -2.91233274192074    6.70503179384019
C          -3.52344124068140   -1.88792005994338    6.55019312486970
C          -2.23767798499783   -2.15161853660889    6.11931285761475
C           3.54335636101160   -0.48366883526530    8.04730662751044
C           3.03235186946069    0.95148739558876    8.18950466306421
C          -5.82803283268565   -2.62780512241096    7.22485906957372
C          -5.84241236446360   -2.68069568952995    8.75393208420540
S          -1.93097676493513   -2.08203813888939   -3.39398270892324
C          -1.77126631778398   -1.84102353524587   -1.68334201711560
C          -2.44056070398708   -0.68262724860953   -1.23000360661815
C          -1.17448034745007   -2.54494701243072   -0.64105550251849
C          -1.40107736500695   -1.94166937276162    0.58427598091480
S          -2.31805953565570   -0.47568177859964    0.49144993632755
C          -0.41248160117117   -3.83071647335729   -0.46566379982988
C          -0.32638074336308   -3.90508932185439    1.05010589636762
C          -0.88456857679008   -2.74873627386294    1.64467858782761
C           0.17451288778039   -4.92494899054002    1.82434185663393
C           0.08394287950590   -4.77748902522419    3.20583241705615
C          -0.44019861110900   -3.60514689395897    3.80016179239376
C          -0.92806804609199   -2.57910340776487    3.02618758262654
C           0.36566176012028   -5.69294770053094    4.26642909301062
C           0.01578811483056   -5.14456527856432    5.48860386399254
C          -0.44540909183513   -3.72183878452571    5.31531706115515
S           0.91186320475923   -7.33361955075572    4.35739210168778
C           0.64225786165797   -7.30850432199511    6.07405521829343
C           0.17676353758929   -6.05520895929486    6.52928365370278
C           0.72837443961141   -8.24480237915517    7.09583730115214
C           0.31646668325289   -7.70931828864935    8.31793946943789
S          -0.14776067450231   -6.04090081536171    8.23414770439030
C           1.04865078394083   -9.71393922206243    7.22596840892737
C           0.75460573276450   -9.92187293660423    8.69509888139363
C           0.34062967817544   -8.71793738906587    9.30114374339925
C           0.79245745543782  -10.96472510461252    9.58339573737432
C           0.39041033494519  -10.59271238270414   10.88092608689822
S          -0.01656821897162   -8.87869477491507   10.96416004012388
H          -5.10398741810336    3.62244295662083   -2.08545378034372
H          -4.02303089349383    5.80067593141462   -1.75728488735587
H          -0.20019269884042    3.91282525872686   -1.82949038722942
H          -1.27295025782105    1.74067405532875   -2.17637368068760
H          -6.46363668228030    0.19344990709047   -2.95985382064705
H          -8.30861916074012   -0.18134246309793   -1.39551700032011
H          -5.93665567970676    1.37406564034247    1.78932423114504
H          -4.09594946023941    1.77756178072378    0.22102961160297
H          -0.38021915244049    6.35083700989115   -1.96396984825259
H          -1.96545952253802    7.13682114987186   -1.97152911570340
H          -0.65943141768947    5.81992117243537    0.45913216300326
H          -0.77896493958150    7.55924706713228    0.17080481606307
H          -2.23889426542677    6.60416253948103    0.45054164873521
H          -9.03788401707378   -0.44378987689468    0.91296013183616
H          -8.01420805834734    0.10165329067702    2.24938752478649
H          -9.63409818582057    1.92618594293844    0.40678075431938
H         -10.05726088796669    1.50578128307242    2.06970571806400
H          -8.61404232895193    2.46996995216827    1.73835401271483
H          -5.63052537191108    2.70694107876229   -4.55088441898908
H          -6.30450310129399    2.71426140931122   -6.83113668742345
H          -4.68090772909611   -1.49271274134298  -11.24093663263863
H          -7.84232009648622    2.25083585817335  -12.15590766433594
H           0.61696129170950  -12.51622005993440   11.61619881122603
H          -1.49186603953331   -8.57895293847801   16.06994767960588
H          -0.73422250532415  -13.42938955410467   16.93309099290649
H           1.08528508988421   -1.62454946527590   -1.11862031091826
H           3.38651481209475   -1.55502691529931   -1.94146005928987
H           3.57149008943748   -5.81251189985497   -1.81087138242377
H           1.25809042648688   -5.88989535952588   -1.00862793561783
H          -0.42644388762254   -4.54729503092925   -3.06137466513827
H          -1.76895599044945   -6.27117388166274   -4.16930055761891
H          -3.53164884751439   -7.30428620333236   -0.42558943373643
H          -2.21073007259300   -5.56710074299318    0.68234106245913
H           5.31284366594629   -4.53092663736205   -2.96464544847662
H           5.22325362534789   -2.76598004670870   -3.05118628626890
H           5.89402654520577   -4.37897648500509   -0.54202722602637
H           7.05344937013343   -3.48518192503702   -1.53177419165668
H           5.80490111823930   -2.62018487120022   -0.62881876697373
H          -4.46476930525434   -8.17196204819076   -2.52339345780591
H          -3.73761836377143   -7.73781395994987   -4.07732915143415
H          -2.49747004166962   -9.62064966602347   -2.01215504192697
H          -3.27762535840423  -10.11610192704719   -3.51832830195973
H          -1.77453508748780   -9.18848278459687   -3.56176019112888
H           3.23453906501362   -8.05300545138502    7.00279256052219
H           5.56741699419618   -8.69294289821618    6.63534310503200
H           4.43612322273067  -12.80350549721798    6.53650624217397
H           2.09293579637297  -12.16588955613540    6.88789432323255
H           1.40213060759663  -10.18296804103403    4.59835420677362
H          -0.12341204435124  -11.26597455677349    3.01437653118661
H          -2.90002016152511  -11.97504790648476    6.17304129749211
H          -1.38999112696261  -10.87486452742943    7.75441909196151
H           6.67204046910112  -12.09303070390053    5.77332712015944
H           7.15176164175251  -10.39216289646689    5.86779475822817
H           6.73819370567754  -12.24746447884396    8.26311850325941
H           8.30048314529119  -11.73610310684804    7.61554087740405
H           7.21754247346289  -10.55332117664644    8.35765302862655
H          -3.57015243908521  -12.29587557162748    3.83862709339659
H          -2.43152541088029  -11.97068904491103    2.52320884511136
H          -2.29175444623627  -14.35527990889821    4.43175157680024
H          -2.84324950656611  -14.41076464037423    2.75422919218846
H          -1.15704079765102  -14.03116580654811    3.12145775916780
H           1.63283928026666   -2.28258094679450    4.21037538398140
H           3.32106848405127   -0.95324969447775    5.38297413349525
H           1.49621046366898   -1.90943771822235    9.11718467341353
H          -0.20617422190502   -3.22882554641435    7.94654697100994
H          -2.48581489742007   -5.49507514535928    5.74163591865000
H          -4.75514433122636   -5.02150396105061    6.52314219567799
H          -3.81360562718638   -0.87003297893074    6.76885645643388
H          -1.53004555911972   -1.34180988263483    6.01363661097975
H           3.73810534733683   -0.89559848742902    9.03944127954034
H           4.48153146299520   -0.47774230569057    7.48877600884405
H           2.10342879621466    0.96760315891918    8.75515123731849
H           3.76480743869825    1.56691027942779    8.70647117835868
H           2.84372874314400    1.38454131756651    7.20962256896819
H          -6.15060668421827   -1.63770283447863    6.89619735484561
H          -6.53161990664378   -3.36464616633664    6.83227389048128
H          -5.15650542750501   -1.94298904682298    9.16433545272709
H          -6.84095852967605   -2.47574321361814    9.13267279409616
H          -5.53357489375936   -3.66409421316634    9.10103242746468
H           0.58477668911802   -5.82416059100076    1.39184875312433
H          -1.35741851466307   -1.68984773462564    3.46117230774634
H           1.07825087130079  -11.97453556598690    9.34852631341071
