144
 SCF done       -251.697280458087          0.000663541388
C          -2.69400163213780   -0.03910730049796    0.76499821629564
C          -1.51923919718462   -0.71157705373824    1.01678236054239
C          -0.28680767043313   -0.04195052776046    0.83746276823114
C          -0.29191318815885    1.32294640717093    0.44269752345234
C          -1.51283145695590    1.97020564002223    0.19140039653149
C          -2.69246143066399    1.29194039723514    0.34135490800785
C           0.96257855415605   -0.70880049472726    1.03488841451459
C           2.16503440841731   -0.02101412228798    0.94809108966184
C           2.15761828698201    1.32330442815630    0.63232014267445
C           0.95633970718632    1.98360684595314    0.34005105951971
C          -1.57211846043104   -2.11926030716666    1.58282960080141
C          -0.25879214356702   -2.82582627970982    1.38185190172993
C           0.91733305290307   -2.11887199201949    1.23614936256834
C           3.34610289009260    2.25555084019904    0.50131210287047
C           2.66624302195028    3.50183341242083    0.00767222488411
C           1.28898309349287    3.31748033246632   -0.03681947750275
C           3.02921538749933    4.78809759524905   -0.37181382175378
C           1.91399256369539    5.58182064591437   -0.71626532659351
S           0.41269097493446    4.71997305991685   -0.55301013809438
S           4.49414782714492    5.66117120946083   -0.57635217026150
C           3.60655850099244    7.09623235666989   -1.08485029645957
C           2.23562760195004    6.86995169408278   -1.10724700001266
C           3.98486301026891    2.60335238604517    1.83841722486880
C           4.35709329745638    1.66482017158081   -0.46038149007035
C           5.18489407458490    3.30388173177899    1.84531271476838
C           5.76485822161642    3.68697332718838    3.03860833197274
C           5.16135985514240    3.38621449190615    4.25347512000909
C           3.96188995769021    2.68827684808658    4.23860528541905
C           3.37308823807791    2.30540382437937    3.04675352092415
C           4.32710975324326    1.96697682244127   -1.81384648075330
C           5.24001358838403    1.39297087855906   -2.67985124364989
C           6.19210960095818    0.49362763353928   -2.22056674550746
C           6.20874888435594    0.18482002683535   -0.86611541955903
C           5.30448929533514    0.76098242374608    0.00455980031600
C           4.33750575475017    8.23018289133887   -1.47753778403512
C           3.91462476050609    9.51249920974381   -1.69997819581881
C           2.72135935007198   10.23629827486670   -1.33456373253827
C           2.65771485987358   11.42621400347305   -2.18625603231677
C           3.87385282928164   11.55004078801984   -2.88013765321145
C           4.74755053748909   10.39966276127060   -2.54978842574492
C           1.65781703068068   12.36849769364343   -2.36158150816297
C           1.90367287512923   13.42125507633636   -3.23084625862342
C           3.11876695897504   13.54567294824501   -3.90514086478660
C           4.12229218492746   12.60485407765512   -3.73569606545453
O           5.87885266656976   10.19931620975017   -2.92574824422212
F           3.31442754028174   14.58275398171947   -4.72837382277588
F           0.94741502015464   14.33568090051483   -3.42799349909205
C           1.93269200979167   10.01934870019867   -0.23334697751796
C           0.82628856540545   10.82086944424445    0.11350765623231
C           2.18972951204983    9.01878202981710    0.72502731940388
N          -0.09596652517001   11.42845758723192    0.42600883243406
N           2.37879619944012    8.24049103095418    1.54709835292177
C           5.81427409450445    3.76429339034839    5.55104286537172
C           6.74519771577422    2.64659533425105    6.02600316471138
C           7.21387110583013   -0.09194809603882   -3.15135899531986
C           8.47996381331506    0.76724803914795   -3.16008228722604
C          -0.01807055872520   -4.20560572961954    1.40477547950239
C           1.34211378517986   -4.54171014598457    1.29560135719249
S           2.33987551124577   -3.13607412220006    1.16170415928920
S          -0.99526850381988   -5.61993970633782    1.46433867183219
C           0.43000560357704   -6.64989708304745    1.39874334676641
C           1.59680801535785   -5.90446115087829    1.30423640300146
C           0.24481094481590   -8.04419265370717    1.35820555536715
C           1.15085815876651   -9.05159654501639    1.53833075950054
C           2.47497335855736   -9.09611646060212    2.11170550537790
C           3.10285241332941  -10.33793063437489    1.65579041475813
C           2.12904763946917  -11.13066632363979    1.02346729391925
C           0.84197999752152  -10.39736693490783    0.99165351275637
C           4.40336618771477  -10.79893970083292    1.77703155414521
C           4.69878194231373  -12.05186790745976    1.25997699665101
C           3.72433893564443  -12.83818077095160    0.64435353184312
C           2.42139850473444  -12.38240456554690    0.51946454517769
O          -0.22157175722067  -10.78813305623957    0.57132401636015
F           4.05322287697232  -14.04371765335381    0.16534077339873
F           5.95123904501068  -12.51170262601186    1.35203048574293
C           2.96725817745744   -8.28464680267716    3.10144582001418
C           4.24423238077767   -8.43437562886410    3.67950566868428
C           2.21596420632132   -7.26074660316652    3.71294707928153
N           5.28245723503486   -8.49961268289130    4.16441994022559
N           1.62785068067925   -6.44211842577605    4.26171716649526
C          -2.69057470273495   -2.88767865701225    0.90055976872233
C          -1.72947492935695   -2.05842340028084    3.10715180170633
C          -2.48023448895707   -3.37901925335812   -0.38260121936878
C          -3.47833093915873   -4.06270665061493   -1.04928411223998
C          -4.71848125347690   -4.26554556082363   -0.45838956535739
C          -4.93572442189880   -3.74559674217798    0.81027313246798
C          -3.93876281573933   -3.06262679804051    1.48220520903618
C          -1.53713690712994   -0.88242604021019    3.81916352481044
C          -1.62565355309998   -0.87321410401816    5.20004525519572
C          -1.89438078035165   -2.03395406698360    5.91065087228633
C          -2.08220882816527   -3.20984713218367    5.19544913797346
C          -1.99746208102469   -3.22386322247906    3.81733349249438
C          -5.81582335183874   -4.97612753360863   -1.19598474138942
C          -6.64131483436817   -3.98134653857769   -2.01474423039416
C          -2.02549116663313   -2.01275945992686    7.40559615692421
C          -3.47839989695865   -1.75703660513479    7.81190173899738
H          -3.63747518473959   -0.54364210321131    0.90628587824833
H          -1.50716522271752    3.00612035085808   -0.11142813959138
H          -3.63259392150159    1.78584527671841    0.14859711406032
H           3.09373232707709   -0.54489268468551    1.11787316655170
H           1.51753499846717    7.59461213600487   -1.44518276444571
H           5.66843462129588    3.54499499398210    0.90938171148766
H           6.69683632910874    4.23319310416125    3.02574713531820
H           3.47453887488880    2.44476252436692    5.17182411903680
H           2.43430117851480    1.77136340225804    3.06446835170496
H           3.58903884003206    2.65604677834202   -2.19845622109391
H           5.20815831963896    1.64651104557881   -3.72985832336887
H           6.93930256062816   -0.51594730042930   -0.48809722489695
H           5.34315818226738    0.51839392207020    1.05670599032218
H           5.38104794805543    8.05498454058603   -1.72261398851213
H           0.70318903020016   12.31286839163308   -1.86415561844322
H           5.06161426271520   12.69859404351001   -4.25687854204038
H           6.39048332597326    4.68228097258783    5.42143531505528
H           5.05096650212803    3.94362895984214    6.31064940170315
H           7.52199994571805    2.46155854699549    5.28738165145554
H           7.21797025581016    2.91962283817343    6.96640802877100
H           6.18629071515012    1.72497741166051    6.17273852046650
H           7.46879811691475   -1.10424349045850   -2.83112878060267
H           6.80748184995767   -0.14511721459283   -4.16322953584987
H           8.90797089105817    0.82030657821050   -2.16160674229281
H           9.22146378068527    0.34514800329453   -3.83415901666698
H           8.24852070424800    1.77855043646036   -3.48680179051013
H           2.57455984689005   -6.33517124014208    1.18855506332342
H          -0.74560248509228   -8.37813316228068    1.06304311731072
H           5.18944268729638  -10.22638966175243    2.24197886772362
H           1.66738877279087  -12.98882859505063    0.04359764134220
H          -1.52518076482021   -3.22216159121597   -0.86510720076453
H          -3.29110300932184   -4.44501531825010   -2.04249080263612
H          -5.89888973609111   -3.87738220814395    1.28222773210039
H          -4.13636559163108   -2.66532086245845    2.46705511693433
H          -1.31981786989133    0.04135693651757    3.30466011901131
H          -1.47561382979428    0.05588173942562    5.73154439774709
H          -2.28938981966547   -4.12967549003688    5.72256880036393
H          -2.15178071012428   -4.15272621751476    3.28997803634227
H          -5.38735963894252   -5.72485894493799   -1.86492885410173
H          -6.46908076358037   -5.48598663932263   -0.48528206689816
H          -6.00910121370939   -3.46785920646799   -2.73601572660207
H          -7.43402365161460   -4.49667386535768   -2.55190423104685
H          -7.09138960140389   -3.23560249648494   -1.36301186083374
H          -1.69947789130446   -2.96957264606311    7.81800591071494
H          -1.39212305384028   -1.22661256700155    7.82138947187055
H          -3.81891971577695   -0.80146607684064    7.41859840522652
H          -4.12498851477541   -2.53874836596932    7.41923326168221
H          -3.57255990712820   -1.74026300080767    8.89509674185035
