128
 SCF done       -228.509370390618          0.000358822666
C           6.00165285923444    0.97104576232685   -3.68325810795419
O           5.96750168207081   -0.16309003125382   -4.11888121844885
C           7.23542909213532    1.77198178846302   -3.51436339555828
C           8.53257383738304    1.40434460240108   -3.81087193509588
C           9.53366822184701    2.33049408520648   -3.56840693881721
C           9.22589706937510    3.58514822382971   -3.04347334238057
C           7.92189193940066    3.95222203849701   -2.74531979462073
C           6.91452124960006    3.03038407562865   -2.98481724336976
C           5.46541274988447    3.09660902712872   -2.78543167177678
C           4.80721393406467    4.18460257061671   -2.26977733321272
C           3.41968638475221    4.30923059254180   -2.04448401812009
N           2.31191907767687    4.51539382837185   -1.81875075019559
C           5.44632339360660    5.37867571655197   -1.87223663893425
N           5.89376500506187    6.37916767566144   -1.53049777127246
C           4.90025903677656    1.83324525511164   -3.22151234185032
F          10.21192871430245    4.46248944854374   -2.81946851529455
C           3.54990658711464    1.55939989540968   -3.18626573477146
F          10.80769003858897    2.01840545006529   -3.84081726576907
C         -11.10595635462730  -12.00019316356147  -10.28083553803725
O          -9.99469089998131  -11.53286662517205  -10.10479398749177
C         -11.48439090152165  -12.96567039661106  -11.33551166248672
C         -10.68953745605947  -13.51689503263307  -12.31975749837045
C         -11.28469452700813  -14.40229734853848  -13.20436151095575
C         -12.63856060170114  -14.71552821309793  -13.09184625268004
C         -13.43622061979293  -14.16156754577963  -12.10064880787229
C         -12.84880659077953  -13.27552598481972  -11.21199741317538
C         -13.39928824202116  -12.52982689508953  -10.07697252413581
C         -14.70009226176851  -12.60549801773830   -9.64649660011145
C         -15.24952743483077  -11.90993222885638   -8.54974340086653
N         -15.77765002595688  -11.38420381487026   -7.67492773504463
C         -15.68699245838545  -13.41283468755876  -10.25015896143518
N         -16.53731180197579  -14.04444285426883  -10.69274220314090
C         -12.32584048911478  -11.73714421841495   -9.51979727891557
F         -13.18849325064917  -15.57214417932595  -13.96092328239455
C         -12.43899576201241  -10.86263171062316   -8.45995398900678
F         -10.55218842552748  -14.96116155263936  -14.17664891003692
C         -11.48924390589939  -10.04668206838895   -7.84714606029352
S          -9.78231024895799   -9.91193399907278   -8.26487981147006
C          -9.57549356024960   -8.75133659691846   -7.02890759851720
C         -10.75908624859999   -8.46644519469945   -6.31866329761926
C         -11.82495919628681   -9.19738997995800   -6.77444940154553
C          -8.54266325261270   -7.94498918473883   -6.51007969102737
C          -9.04831154553639   -7.14837242102439   -5.47666796280291
C         -10.50738681677490   -7.44613360378374   -5.23094946594854
S          -6.87992844169365   -7.65018858708010   -6.82333613574894
C          -6.87054159470888   -6.40368562752245   -5.59754849085338
C          -8.10209112988998   -6.26995050575580   -4.97156415043148
C          -5.66008272967661   -5.68589598626113   -5.33098304783109
C          -5.58481391568964   -4.48300898505992   -4.62175171578740
C          -4.34842874147717   -3.86402685556263   -4.32581868586962
C          -3.12178856123432   -4.34390263504373   -4.79342958377944
C          -3.18207490540701   -5.54666017495748   -5.53552466510356
C          -4.42280017190049   -6.19335242845739   -5.78721684172335
N          -2.22749993426122   -6.28104131550789   -6.12644975223409
N          -2.87288818288995   -7.27462158156336   -6.67315144232816
N          -4.16536859188143   -7.28863242424614   -6.51228844021450
C          -1.89901824871872   -3.62948217805112   -4.61077456657798
S          -1.89685148621308   -1.99809874638760   -3.98944164833557
C          -0.19273681234952   -1.92862472341036   -4.19592069414006
C           0.34262817589819   -3.10990768684882   -4.72395261627205
C          -0.62839858764057   -4.07263940720867   -4.95044027176474
C           0.85420573196354   -1.02110376658199   -3.94736206199357
C           2.07430353118873   -1.61929869504130   -4.31343493568488
C           1.84049988180784   -3.00253660261242   -4.87671487415946
S           1.05525128359701    0.55448047921117   -3.33043628436991
C           2.81024032368147    0.43421263503989   -3.56046909387663
C           3.16354734989128   -0.80656202594343   -4.09997798070750
O          -4.35869915430162   -2.69460894811298   -3.59811905048595
C           2.27289729469701   -2.99212585076585   -6.35991588866904
C           1.94776810219885   -4.26263200146485   -7.13374203182297
C           2.58221689432934   -4.08337715884601   -4.07483478105067
C           2.26500471595056   -4.03075487885935   -2.58483068673366
C         -10.73720612936130   -8.13541076764776   -3.86743643974343
C         -10.33702860765062   -7.30943665242800   -2.65241590047440
C         -11.38408740334293   -6.19483255146842   -5.39275892139463
C         -11.25341843976511   -5.56112658062460   -6.77289079266079
C          -2.19261928925147   -8.32416853520038   -7.37632610712998
C          -1.90341888583997   -9.49231979383972   -6.43843966062837
O          -6.72332713280563   -3.84438024231719   -4.18579967852495
C          -7.40932504614744   -3.10009127812614   -5.18650227426969
C          -6.59539425108472   -1.93115851255628   -5.72505728072234
C          -4.24811397054179   -2.85279272406480   -2.18516779940347
C          -5.48603879198028   -3.44347730200472   -1.52751050594276
H           8.76281504997877    0.43229153675841   -4.21683530581677
H           7.74164545610131    4.93448610128054   -2.34153253929309
H           2.92749803633210    2.35849702146123   -2.80215171498876
H          -9.64310343086470  -13.27046163170741  -12.40267138416531
H         -14.47692242955697  -14.43736131535770  -12.05907188741104
H         -13.42325199515558  -10.77089322951385   -8.01706938723232
H         -12.82785637959981   -9.15041729690165   -6.38817456529860
H          -8.26780527518998   -5.56073118495967   -4.18223897811737
H          -0.46729104888800   -5.06281761964644   -5.33320022024848
H           4.18645540750235   -1.06209705995195   -4.30542607867381
H           1.78117747985383   -2.14649819495694   -6.84743293755364
H           3.34921427143146   -2.81188771765703   -6.38998331091197
H           0.87696965858211   -4.44600440777509   -7.14526746904347
H           2.28510635232056   -4.15257576156040   -8.16190895934473
H           2.44952580865755   -5.12611190480951   -6.70598844753657
H           2.30079065361961   -5.06261459516919   -4.46322798157856
H           3.65499826472629   -3.94852573154821   -4.22319260510218
H           1.19898384901041   -4.16359028535063   -2.41294241043789
H           2.79778359019714   -4.82196645242170   -2.06305171336416
H           2.56644885607191   -3.07717109967624   -2.15787166913870
H         -11.79609251886210   -8.39280996019414   -3.79891978369084
H         -10.16818314697341   -9.06848599944602   -3.86281682157279
H         -10.89962665100585   -6.38155349426287   -2.59992153831025
H         -10.54116668124888   -7.87795650070776   -1.74799805600021
H          -9.27590882816513   -7.07760211112395   -2.67390054015813
H         -12.42458412427604   -6.47397623150329   -5.21683447397597
H         -11.09398921442620   -5.46341539293870   -4.63786607182018
H         -11.56297625884830   -6.25629240782260   -7.54969473181227
H         -11.87980405488092   -4.67476827834486   -6.83661346769579
H         -10.22376210427053   -5.26807452307258   -6.96565461853070
H          -2.84031966031445   -8.64647340980294   -8.19375730468771
H          -1.26491377506671   -7.90615761367149   -7.77099650782049
H          -2.83319892616852   -9.88499423078503   -6.03457463478139
H          -1.39577920899924  -10.28345724673557   -6.98216793806641
H          -1.26950211956457   -9.16952963673512   -5.61604900525940
H          -7.70793778422448   -3.76313962465201   -6.01052284777950
H          -8.30747565691950   -2.73866969216136   -4.67991177237125
H          -6.22821996164842   -1.32081321291136   -4.90434651162013
H          -5.73985085579581   -2.28918478916009   -6.29436298023025
H          -7.21930045847621   -1.32356334154466   -6.37462878040864
H          -3.37011539185416   -3.47118222994875   -1.95034075623365
H          -4.07071247233868   -1.83833330417179   -1.82056736307974
H          -6.36419152174976   -2.85924891079189   -1.78552471430053
H          -5.35311473980372   -3.43495658972345   -0.44890100269666
H          -5.64713820158784   -4.46813132225305   -1.85412756945474
