106
 SCF done       -209.995540261193          0.000536516914
C          -6.60766427736394    3.33459347652920   -2.53122800194009
O          -6.30306962538662    3.11393660767835   -1.37343917582302
C          -7.50562950878162    2.51165986476877   -3.36826196316756
C          -8.17446036138405    1.35343138891216   -3.02656044052392
C          -8.96649495296685    0.75995265989742   -3.99646978064665
C          -9.07444632468861    1.32361868194057   -5.26796717080869
C          -8.40165048962234    2.48776894213973   -5.60991689862526
C          -7.60746965160709    3.08787632547114   -4.64556806362162
C          -6.78479715189359    4.29900248696894   -4.68386391389992
C          -6.64258206235446    5.11790754713166   -5.77389016784270
C          -5.85534552773521    6.28729276748095   -5.83213435931621
N          -5.24126178980159    7.24878736125895   -5.96623630341430
C          -7.27600810120817    4.89941914597210   -7.01628375923595
N          -7.75774983575593    4.78315763585663   -8.05122936221709
C          -6.17428428545381    4.44740664265397   -3.37836445625047
C          -5.33461897777204    5.46682001912109   -2.99493293527003
C          -0.70579646987138    6.06954331032229   18.82996246289602
O          -0.35882115848856    5.13827020848655   18.13264227173077
C          -0.80434729388947    6.03239284345503   20.30584965397445
C          -0.56249438964777    4.96272033518734   21.14498459864049
C          -0.73355650774355    5.16213720403174   22.50485878108013
C          -1.13657406763643    6.40512685159975   22.99420376621915
C          -1.37515623413796    7.47946523367625   22.15026720932624
C          -1.20465322392797    7.28775544020498   20.78757710773083
C          -1.36786072256602    8.19412173931343   19.65065369227134
C          -1.67206982306886    9.52598899246146   19.75840889404099
C          -1.78312237526451   10.45442212681482   18.70039737954362
N          -1.88331179394289   11.28710840216799   17.91548643698519
C          -1.90284337092891   10.18638881889212   20.98524499505934
N          -2.10523713304176   10.78764535861642   21.94156128727825
C          -1.11313542819442    7.43333548569307   18.43809081599037
C          -1.30589693579865    7.94226280798287   17.17625942156362
C          -1.14225120897660    7.38094274203524   15.90186299264118
S          -1.63122392146125    8.40829734160575   14.54475962463550
C          -1.21795345472958    7.17189853294899   13.44858747463441
C          -0.71295852871407    6.02649507339945   14.08470369479623
C          -0.67152815176627    6.14429830436996   15.45799488028369
C          -1.24434347235148    6.94143637770776   12.05607047719209
C          -0.76648166762421    5.65494255248749   11.79393844186672
C          -0.39313968295636    4.94854466649117   13.07441818522640
S          -1.67602775364513    7.79689260965390   10.63922615937298
C          -1.23741439824339    6.40956184155284    9.66738673669393
C          -0.75865451925367    5.36115278831238   10.43592149346079
C          -1.44891526323893    6.42654074278986    8.24121885514755
C          -1.68203997003230    5.25603964204225    7.50261554514680
C          -1.94964887476350    5.27671422477581    6.14708900450612
C          -1.99031156940446    6.46528922811441    5.40211119272806
C          -1.73512943270129    7.63380904274857    6.13695905265055
C          -1.48526621094203    7.61456684354311    7.49577338245368
C          -2.31263296227953    6.49246008457870    3.99740675873383
S          -3.29422164965556    5.22899527683942    3.28950024548832
C          -3.26509544728809    6.04546005732116    1.78682581462605
C          -2.52053994584295    7.22642629431446    1.82245733542653
C          -1.97582773887903    7.47151158835966    3.07645512570553
C          -3.79006421934355    5.85693420886812    0.48978889461575
C          -3.36423236363562    6.92811296461945   -0.31796878880076
C          -2.49602126714646    7.89034679178253    0.46390314934393
S          -4.80811612826067    4.74508108577514   -0.31161499006549
C          -4.70329142998190    5.71787621900617   -1.77321473213698
C          -3.88960849831166    6.84959708863975   -1.58504818950349
C          -1.04068072455499    7.90365718864334   -0.04698625494981
C          -0.86001554121519    8.46085428355667   -1.45227423628472
C          -3.17160803929207    9.27591629317217    0.46929921944325
C          -2.44764849448144   10.34641644043544    1.27468434637358
C          -1.30876506160906    3.73767009577112   13.36381721041765
C          -1.23168401741572    2.60846013011435   12.34538241244896
C           1.09385263156830    4.55817816563402   13.10432753275998
C           2.02215238301632    5.75936841138101   12.96600163431646
F          -1.26436594574272    8.78635851586957    8.11003366031032
F          -2.16983516120513    4.10470161746911    5.53369103976656
F          -1.29997156432456    6.56905363387067   24.31159800354457
F          -0.51299856027093    4.15378241977297   23.35683680683490
F          -9.63413910484706   -0.36409845118562   -3.71097106489004
F          -9.84596593297336    0.72985944799360   -6.18503676437031
F          -1.76438199007257    8.82829874470672    5.52690272511172
F          -1.68545420619180    4.06527189099782    8.12075332242970
H          -8.08759789794442    0.92192582025598   -2.04218083666008
H          -8.52018334858383    2.88097494228770   -6.60605176604744
H          -5.11544948247119    6.21775907362487   -3.74422443844887
H          -0.25285373095431    4.00432710275923   20.75979653166458
H          -1.68593138541134    8.41647727282959   22.58152303679693
H          -1.67696441015370    8.95957234404054   17.13798242743846
H          -0.32473024578376    5.39082071072264   16.14048416263512
H          -0.39825255177284    4.44332031014689   10.01176232723905
H          -1.34237828783257    8.30397864252730    3.31658508894477
H          -3.73449882379206    7.56142904537639   -2.37618649117850
H          -0.43907117798374    8.48160073289160    0.65576555192374
H          -0.67309641762040    6.87442009670213   -0.02308754472615
H          -1.19463483335159    9.49226497958472   -1.51698177002657
H           0.19407032901711    8.43101339872409   -1.71854171082240
H          -1.40758591106767    7.86700301801452   -2.17851185035343
H          -3.27321106968514    9.60537768690210   -0.56557820888944
H          -4.17986717315271    9.14970751784925    0.87195595675922
H          -1.44162349801819   10.51340871189243    0.90019724246471
H          -2.99460750038814   11.28331454594228    1.19804442068528
H          -2.39300648125993   10.07576588291644    2.32499406054064
H          -1.04403754610020    3.35514831199274   14.35138678007052
H          -2.33905356736005    4.09885954165611   13.41353112131679
H          -0.22557944844155    2.20501577954265   12.27456934489201
H          -1.89452373819485    1.80362672097804   12.65423932332140
H          -1.54813554286516    2.94515849783274   11.36238141838410
H           1.29672287898220    4.04859297469570   14.04769652539185
H           1.28951633578807    3.86185090283241   12.28857417845596
H           1.88237154943967    6.45544271884031   13.78972239108530
H           3.05795560330119    5.42936621074015   12.97086256727638
H           1.83596628678819    6.28769674987478   12.03341072763007
