101
 SCF done       -198.234240057903          0.000452198354
C          -0.60368156458032   -2.51124376693794   -0.56096633523791
C          -0.99424663643616   -1.18220678337669   -0.30189668048374
S          -2.66964462147435   -1.01517064160877    0.17607008365662
C          -2.84069853554641   -2.72493330767095    0.02517184936310
C          -1.66695603124034   -3.39945575133172   -0.35864411783481
N          -1.92458358556842   -4.74899600563060   -0.44064440096973
C          -1.16175941785587   -5.67203637678155   -1.26064593854252
C          -3.25809544882407   -4.93473762832025   -0.13146552462367
C          -3.86497032252248   -3.67414418239666    0.12498144647494
C          -5.26742913226667   -3.55549716383488    0.24603589139552
N          -5.99106004321672   -2.46792433409684    0.46143607282444
S          -7.55669493044312   -2.86269410993910    0.36372399394866
N          -7.37743732783584   -4.43534690911375    0.04126794815197
C          -6.08360396880016   -4.71516002087509    0.00460179425952
C          -5.45773161646879   -5.96798356045978   -0.17774000911263
C          -4.05364312575244   -6.09788322843262   -0.10382186320723
N          -3.68456701446766   -7.46237951421292   -0.12729504193558
C          -3.01107678783959   -8.00680664704750    1.06677533997919
C          -1.58955983949283   -7.54549335708037    1.31856548915337
C          -4.88060410091443   -8.14864198812467   -0.38724380070207
C          -5.96569728207590   -7.26762931243981   -0.38990209628263
S          -7.50612282111560   -8.00391503557941   -0.64537051917350
C          -6.69869533070325   -9.54136487258896   -0.76506151440758
C          -5.28712265886064   -9.46795855350037   -0.61638195419990
C           0.29367919052156   -5.82935779935429   -0.83076953050955
C          -7.83743490529853  -14.55053762727128   -1.66541848528679
C          -7.32293575525989  -15.82608187645369   -1.70306323333853
C          -8.12766994326606  -16.99669048848458   -2.00828435520330
C          -9.39954273504117  -17.02634209846309   -2.51948454558973
C         -10.11075727552346  -18.21412563307219   -2.79423306048262
N         -10.74953484706105  -19.13687271265640   -3.03581958330059
C         -10.18162126197232  -15.90957045765178   -2.88530671237715
N         -10.88434844208624  -15.07004402296235   -3.23299704297958
C          -7.31382102211686  -18.18038766711989   -1.73766167097920
C          -7.60145477453780  -19.53378550020247   -1.80143686063488
C          -6.59846987596743  -20.44421554874197   -1.48519159572366
Cl         -6.94833544881422  -22.12453202141644   -1.55646204862272
C          -5.32036153302705  -20.01612973999143   -1.11223134607763
C          -5.02966366655077  -18.65954644856231   -1.04585184351460
C          -6.02964150463966  -17.76136730223646   -1.35654492430364
C          -5.96685134341229  -16.28405277958868   -1.34680361754564
O          -4.97578590687934  -15.63249727928115   -1.07729433718879
N          -4.73922715073509  -10.71172664664600   -0.78852212543226
C          -5.77531571773577  -11.58198752263197   -1.01895159767741
C          -7.00821921529309  -10.87510183516565   -1.00871465412910
C          -3.34667596739311  -11.08579810543015   -0.83379594938523
C          -2.92704198657327  -11.87552367609315    0.40475223824908
C          -5.90369101672727  -12.93963926523194   -1.25473339632574
C          -7.23398165714854  -13.31070513074055   -1.41845314610443
S          -8.33543342166233  -11.91964061312200   -1.29876693833227
Cl         -4.10454784150001  -21.16838609087468   -0.73195483222369
C           4.02190508394667   -1.89467306528281   -1.87856227839621
O           3.34620772643870   -2.90771990402515   -1.82031893545283
C           5.43535814773549   -1.81769899546120   -2.29896976662315
C           6.26889928622924   -2.83655261485639   -2.71013791721952
C           7.57481439282177   -2.51643130900123   -3.06067080363327
C           8.01758925772533   -1.19171317295109   -2.99271714938793
Cl          9.63410755566372   -0.80877187437474   -3.42893317104730
C           7.17206369375686   -0.16806615940731   -2.57644272671758
C           5.86996453697953   -0.48313237695344   -2.22652159372317
C           4.76052031073962    0.34824146652295   -1.75834979639855
C           4.82645846954997    1.70308164182419   -1.55146203897074
C           3.77424645398343    2.52205068745788   -1.09213729055915
N           2.97267577224194    3.25761642625795   -0.72117224855875
C           5.98341061409840    2.48069341767006   -1.76998204074231
N           6.88518184349314    3.17373860266850   -1.92568020802896
C           3.62285556537105   -0.52504909833382   -1.55439371983361
C           2.37746407873030   -0.11700208504846   -1.13316757781375
Cl          8.64568975406053   -3.75524901226241   -3.57884755838965
C           0.00755392147683   -0.23899030389859   -0.47049450358116
C           1.20893727596627   -0.83983071319577   -0.88899668698718
S           1.04821594141665   -2.58853065509600   -1.05044918420304
C          -0.22003375822701    1.22470785619863   -0.28167893019790
C          -0.55837413696727    1.89759775972256   -1.61500130944014
H          -1.68466667962651   -6.62828888961538   -1.22275985401531
H          -1.18924900245049   -5.31576289927914   -2.29815931905710
H          -3.62385367656713   -7.75595271464901    1.94476638472769
H          -3.02084238754769   -9.09064020029044    0.95710553030494
H          -1.54156863188603   -6.46593659653194    1.41713888758603
H          -1.25287290504244   -7.98591240662856    2.25446922794094
H          -0.92161116521464   -7.87594610772667    0.52976426664339
H           0.38525234507593   -5.88315505091353    0.24957828817526
H           0.69826039609333   -6.74122494058127   -1.26200243516765
H           0.89962140710210   -5.00059303412548   -1.18080513916197
H          -8.90572158099780  -14.47211464091792   -1.82906386496145
H          -8.57372430190060  -19.90342518583524   -2.08201220713696
H          -4.04926613287827  -18.31414205898497   -0.75830039958982
H          -3.18845889133991  -11.70269640910534   -1.72447116462481
H          -2.75281193518632  -10.17518343918652   -0.93992462330702
H          -3.12487833889819  -11.31244606168925    1.31458606054641
H          -3.47580397781150  -12.81181637166502    0.45744504584763
H          -1.86498118005002  -12.09891208865546    0.35621057933614
H          -5.10232152352324  -13.65219028429063   -1.30433450229457
H           5.91399808971109   -3.85381487091636   -2.75767933621575
H           7.55079790931038    0.83987094131904   -2.53774982748883
H           2.26578311199165    0.94426606654624   -0.95896505338115
H          -1.05914953024280    1.35413153125791    0.40482023269796
H           0.65617700801089    1.70615374990820    0.15467927537459
H          -1.45514184510050    1.45688928486391   -2.04425898320929
H          -0.73092216252898    2.95825775848389   -1.45766356618891
H           0.25920096285202    1.78260734070767   -2.32278098741390
