112
 SCF done       -200.377346433155          0.000664471229
C           0.27968798615953    0.36478770477831   -1.43136901432830
O           0.04289943918008    1.52578902027242   -1.70742740549906
C          -0.68859233401108   -0.61225909819056   -0.88743836028568
C          -2.01288493380314   -0.41750114302814   -0.55585311537652
C          -2.73006161737681   -1.49518718315652   -0.05078820723409
C          -2.11126321642581   -2.73858661853346    0.10968530969085
C          -0.77569589809454   -2.93004493783403   -0.22901291655952
C          -0.05763043163906   -1.85785753935191   -0.73174373653571
C           1.33435623668861   -1.73775125453386   -1.16752510679120
C           2.24096316442370   -2.76724108604528   -1.18920202670877
C           3.58115240599105   -2.69684335851835   -1.62499184298816
N           4.67939727805424   -2.75353646978152   -1.95906686954081
C           1.94927663853822   -4.08385745603269   -0.77373364546953
N           1.78688681142968   -5.17332997804613   -0.44937024686462
C           1.54653251713488   -0.36125391523578   -1.56505847593559
C           2.75660652471469    0.17084763045459   -1.94436726535744
C           3.10441492154476    1.47310081964117   -2.31639466419487
C           4.43297272850548    1.85119110750807   -2.60237304338236
C           4.52809745248130    3.16690579379457   -3.03376086229280
C           3.30841426753733    3.82773708282686   -3.08738263043496
S           2.00671683728550    2.80002921351310   -2.60990082531733
C           2.66354679591091    7.87692371728108   -4.20526767704119
C           2.39902782336207    9.23354544776539   -4.61760817580710
C           3.03460732908115   10.39879783286353   -4.26929371273029
C           2.45616473506713   11.55115485460773   -4.82319006084342
C           1.36122466163808   11.26338035071001   -5.64327765040393
S           1.06598516306001    9.54351740558084   -5.68312516808103
C           0.68783313193746   12.16788752581394   -6.48601156563324
C          -0.46938637028163   11.99088693950084   -7.19165815986367
C          -1.51004422430733   10.99504176100822   -7.08934772594474
C          -1.92491546158057   10.37704873356102   -5.93722298078832
C          -2.92813447973693    9.39208670804629   -5.88092314447731
N          -3.69775851189618    8.54502897673448   -5.78597958018472
C          -1.41916847829895   10.72843979117006   -4.66797909818518
N          -1.07376257106924   11.04283550859979   -3.61925954729393
C          -2.21594732366347   10.97630219930042   -8.36774800682041
C          -3.18788551792451   10.12380026197150   -8.86109054022220
C          -3.71944849942867   10.38172782209026  -10.12017523632248
C          -3.29632086031499   11.48223111903127  -10.87302105486168
C          -2.32213539375041   12.34103044973108  -10.37728402991081
C          -1.78831379277423   12.07698558291384   -9.13316881168119
C          -0.72966028268799   12.81059462114465   -8.39819047740431
O          -0.16356087124681   13.82611457160420   -8.73226467450018
Cl         -3.98131487159322   11.77696836617725  -12.42052544372392
Cl         -4.91538926143007    9.32374024802839  -10.75313245692529
C           1.59625232859553    6.98878588616708   -4.08739620888438
C           1.77583385827428    5.67380975769261   -3.69691416436379
C           3.08853761830242    5.20024698820516   -3.45996935705114
C           4.15645476220016    6.09564160609724   -3.58161186461336
C           3.97135824493078    7.42216031360952   -3.92763334262985
O           4.96978853184725    8.33155527151677   -4.05109223140083
C           6.31485760203126    7.91929596754272   -3.89233007823954
C           7.19304254099169    9.13526956616355   -4.14316460283503
O           0.78481067421437    4.78146123174967   -3.50782475933278
C          -0.57577874090752    5.13832179499654   -3.68296788482304
C          -0.99501323210499    5.15932261842911   -5.14856204427389
Cl         -4.38121760636236   -1.29446528076443    0.37799174571318
Cl         -3.00738981143635   -4.06312364149029    0.73763091101172
C           2.90291009364201   12.90272934292336   -4.52159531368297
C           5.58572521697107    0.95995139971223   -2.47460996629155
C           4.26377907841743   13.18228297097738   -4.39026354031061
C           4.68928499472681   14.46117020513386   -4.09645562990114
C           3.77624679780169   15.49403738569575   -3.91068542636776
C           2.42076150151445   15.21079768292975   -4.02983299792103
C           1.98462316385201   13.93563114222421   -4.32894407951863
C           4.24515319047418   16.89073156001192   -3.62885180299993
C           4.45096619655727   17.65618126205676   -4.93817337681073
C           6.46154938941320    0.80551853028142   -3.54685879096278
C           7.52422407506822   -0.07124033335635   -3.46077282128398
C           7.75068197460382   -0.80733211538285   -2.30413069312241
C           6.89930478728195   -0.62163555194365   -1.22211825378018
C           5.82939619744455    0.24677689758021   -1.30256575266337
C           8.91688479228964   -1.74568362593934   -2.20782062173603
C          10.14850650736255   -1.01878368707299   -1.66330671107769
H          -2.47675507745492    0.54761776894674   -0.68415759017719
H          -0.33529853359690   -3.90343098751562   -0.08981067269149
H           3.59676172036642   -0.51361751387116   -1.94701085133289
H           5.46909693974225    3.61697716884486   -3.29564198543558
H           3.86481115095930   10.42018627296688   -3.58905102096383
H           1.21732408566013   13.09326574804156   -6.69505729694614
H          -3.53208731797785    9.26680344186904   -8.30477090341877
H          -1.99170420751431   13.19357100349484  -10.94929783355827
H           0.60653707622084    7.37130536798398   -4.28040951706916
H           5.14843102474310    5.73266176293550   -3.37449547374872
H           6.55175268729174    7.12377104224555   -4.61162556984682
H           6.47635057886321    7.53763712477882   -2.87505307675536
H           6.97191357323637    9.91161138572908   -3.41567278173461
H           8.23977762941190    8.85871528818259   -4.05933454967657
H           7.00582413365932    9.52725786336649   -5.13922229072611
H          -1.11892988376359    4.35398358053629   -3.14985480213528
H          -0.78269832979062    6.10018981863832   -3.19976741731695
H          -0.85043810981313    4.17571989884887   -5.58777557407920
H          -2.04469764390038    5.42926435712366   -5.22065171730334
H          -0.41059189739144    5.87959038677013   -5.71648808984566
H           4.98546159410447   12.39374457280340   -4.54553068013424
H           5.74684698334309   14.66493732757077   -4.00613942445698
H           1.69720654892722   15.99814079135968   -3.87595946925164
H           0.92678441125233   13.72222727935042   -4.37222786062418
H           3.50545311239421   17.41358747741062   -3.01964590736792
H           5.18645404531242   16.86254044109509   -3.07631985751403
H           3.52120175242024   17.70083557110152   -5.50053700763511
H           4.78408257503926   18.67116095269604   -4.73550643019894
H           5.19896044735152   17.16088337951199   -5.55322512594598
H           6.28095460186635    1.35275305380603   -4.46100475004328
H           8.18130802638906   -0.19747175166367   -4.30957369998475
H           7.06864873708337   -1.17506789553398   -0.31032468590976
H           5.18476768643683    0.39074551896427   -0.44683627279122
H           8.66470506319111   -2.57589863991696   -1.54626603963987
H           9.14593407547049   -2.15205160387694   -3.19464735605259
H           9.94436492777871   -0.61581582730463   -0.67376812387421
H          10.99222247021678   -1.70115090209561   -1.59296227869758
H          10.42264896922223   -0.19427480166055   -2.31813642311851
