218
 SCF done       -350.775774725878          0.000497081832
C           4.24547137920862    0.16679656887657   -0.66140473911395
C           3.35930756797300   -0.82873660172306   -0.18449910386355
C           5.54913891070396   -0.40936332786666   -0.68261091045965
C           5.51014664600539   -1.73763529342009   -0.25303796037971
C           4.09910799890290   -2.12206761353415    0.11247223031499
C           3.51580888199870   -3.21778155521610   -0.76095928392073
C           4.09387519137472   -2.51548556316199    1.57954612224084
C           4.02721055997826   -3.47812048528102   -2.02418422537621
C           3.45796935244735   -4.45214618477420   -2.82364557378017
C           2.35896588962561   -5.18051285477687   -2.38955063660461
C           1.84394611830857   -4.90786540628025   -1.12878420126686
C           2.41100386961489   -3.93802047266725   -0.32449347885026
C           3.68672277805006   -1.64292770086792    2.57734685110138
C           3.74075216278493   -2.02609690438263    3.90601463058806
C           4.21395063470860   -3.27830857270949    4.27080736822023
C           4.63140888387788   -4.14378809143269    3.26694130727317
C           4.57622488069163   -3.76875907033150    1.93932886280443
C           1.77453442145787   -6.27156416782087   -3.23934929162039
C           2.45556250964518   -7.60720078174309   -2.93361891201107
C           4.23054146732647   -3.70689788078732    5.70976552320382
C           2.91867158399951   -4.40492672984788    6.07449627134770
S           7.12676001302417    0.10682258087163   -1.06973869771432
C           7.76919304351395   -1.48628720634348   -0.63307054349137
C           6.74991206758412   -2.34409790986851   -0.22002540416146
C           9.15612399312815   -1.63726290148917   -0.75844144072962
C           9.99987321387897   -2.68270991521742   -0.46377032696091
C           9.67304810460066   -3.99020299606360    0.13770564733827
C          10.97195914255003   -4.66657805551559    0.34929988814748
C          12.01405795409804   -3.85178735558208   -0.11874190065903
C          11.43770650525988   -2.62199797885553   -0.66087120506757
O           8.59006444653917   -4.46155201855453    0.42029562665689
C          12.16363562928824   -1.62813406031849   -1.26707942870648
C          11.65779873357882   -0.44774354033465   -1.85210481040591
C          13.56694800258956   -1.65393371444999   -1.41564591867441
N          11.35130475884776    0.53487389935833   -2.36278643790294
N          14.70300981331154   -1.60083935400462   -1.57234839417050
C          11.20657166773063   -5.90234433028273    0.91536117587149
C          12.52119764861876   -6.33772533505714    1.02179925940409
C          13.56770969552619   -5.53226345219888    0.56200214664174
C          13.32437040269862   -4.28849214285589   -0.01075068128973
C         -11.35649582292869    7.91752338334715    2.30916364623501
C         -12.10646061921606    9.04694003044288    2.11295379872988
C         -13.13622166230835    9.41588139838618    3.11372862703183
C         -13.49236119363873   10.81985821959494    2.79900240214524
C         -12.81912745836502   11.22243152636013    1.63158362695982
C         -12.06066093440049   10.08469612138126    1.11332474770825
O         -13.55879068236607    8.73049206807767    4.01654417945527
C         -11.63056300463257    9.94752043909018   -0.18346416417757
C         -11.20474176373940    8.71861265038026   -0.72161710007795
C         -11.64733300642005   10.97995958160471   -1.14053667734065
N         -10.90315930688785    7.72518334036871   -1.21223723428442
N         -11.60469307858757   11.79202113146689   -1.95128990660918
C         -14.32695927801072   11.67786701072268    3.48398001363289
C         -14.48428535245572   12.97137448841481    2.99947977926735
C         -13.80898632424038   13.38129316852749    1.84553437354233
C         -12.97673776698853   12.51009048925353    1.15022340441227
C           3.80664984806185    1.44762916376622   -0.99472351042162
C           2.47091160896267    1.71740414667751   -0.82489434887678
C           1.58111834337066    0.71722415067013   -0.36162550143084
C           2.01596153114202   -0.56726905190986   -0.04662189178357
C           1.73460841052464    3.02278378924617   -1.07798836002634
C           0.33373620050128    2.63805218564934   -0.68385297433047
C           0.28757609079931    1.31645047502794   -0.27709624529167
C           2.16476274012357    4.16279546447475   -0.17249500983761
C           1.88354100875361    3.38118812294028   -2.54446471676727
C          -0.90387437586589    3.26464918219598   -0.54527522277310
C          -1.88929022622992    2.39328584896897   -0.04070081209371
S          -1.27616752454472    0.79748318981864    0.26055749092147
S          -1.50710721113090    4.87174751928028   -0.80440389717306
C          -3.05579578018911    4.36698608141517   -0.21233722351807
C          -3.11246893466313    3.03327083104977    0.15083114415393
C          -4.30048183501664    5.01470261935439    0.05582545113387
C          -5.17249140315953    4.03203750929351    0.58547776415214
C          -4.49027243111897    2.67534358159109    0.63943766821883
C          -5.06683945944509    1.66635817379113   -0.33981273670404
C          -4.52296187145808    2.15827485500117    2.06376194810852
C          -4.68972008547717    6.34370938801898   -0.08553322977955
C          -5.95527629608286    6.67682588995196    0.33781399043968
C          -6.82275891811306    5.69652924503545    0.87649909852740
C          -6.43858938680886    4.36233998644187    1.00259180630770
C          -6.61956932120697    8.04243738145377    0.31576347986135
C          -7.97319313796918    7.71211625060772    0.89187548676094
C          -8.03650924519771    6.35911836343664    1.22361869736631
C          -5.96561483505638    9.05553174363400    1.23912838772602
C          -6.66812586505028    8.53478446858199   -1.11954939782941
C          -9.12760129692493    8.40389678558763    1.20371922107561
C         -10.09548133002028    7.58633202708807    1.78754228897496
S          -9.51837131646149    5.93244374022595    1.95417466700576
C           2.87831963338761    3.94146359331803    0.99624181389159
C           3.20381895028166    4.99863524338252    1.82710826823522
C           2.81334596633197    6.29511545091590    1.52200038926105
C           2.08714249551084    6.50836746137318    0.35700627746439
C           1.76410420733239    5.45780046677654   -0.47917918426554
C           0.94315046357634    2.98305630035619   -3.48327064022146
C           1.11880262879722    3.28344258073595   -4.82182117357624
C           2.24034393450074    3.97501398333514   -5.25755310392332
C           3.18286134322774    4.36427623462591   -4.31404643524129
C           3.01005412189176    4.07102247800687   -2.97540643327564
C          -5.92077270548077    2.04355140151466   -1.36579536296860
C          -6.38862741803527    1.10263943944450   -2.26549065368327
C          -6.00739255698161   -0.22877276616251   -2.17275847044487
C          -5.14084416647519   -0.59720326941756   -1.15128821030841
C          -4.67309439190034    0.33674622628912   -0.24762061980951
C          -5.62076535762708    1.43623406924473    2.51510300299850
C          -5.67954715045198    0.99383678202948    3.82254055552895
C          -4.64887882462438    1.26240719745615    4.71419943883741
C          -3.55819253853612    1.99084050525111    4.26018574181640
C          -3.49684307227504    2.44055263846729    2.95402353645753
C          -5.06437368400335    8.67748898354718    2.22349110352289
C          -4.52117316007633    9.62300860194445    3.07491672229703
C          -4.87198675304832   10.96203540751026    2.97561270867259
C          -5.78608612751038   11.33292319895329    1.99718164366804
C          -6.32981041882593   10.39358644071498    1.14291378409343
C          -7.74554812295737    8.23327650375842   -1.94034894100954
C          -7.77202524103236    8.67396304846803   -3.25037021807707
C          -6.71850593685498    9.40676519168226   -3.77983835302575
C          -5.63062679507048    9.68221133418518   -2.96139416556905
C          -5.60156295364042    9.25072192266855   -1.64867837026927
C           3.20764674754485    7.44592781157317    2.40199958140263
C           4.54830408443099    8.02791040914962    1.94925214655952
C           2.40830566865940    4.33947700586218   -6.70422687874321
C           1.80830381793607    5.71977649120210   -6.97988808276977
C          -6.55836571425964   -1.25281767159903   -3.12245935008959
C          -7.87850379702954   -1.81557203915413   -2.59147687867568
C          -4.69141065570609    0.73390449513403    6.11884951759959
C          -4.06910601531770   -0.66248205428358    6.18227878714469
C          -4.24174648650424   11.99022404834038    3.86992834419792
C          -2.95094964085433   12.52231458687745    3.24376691865607
C          -6.78111259718280    9.93310077372818   -5.18422261484261
C          -7.47903783903031   11.29464001087064   -5.20912241085753
Cl         12.85895280041982   -7.86920245551451    1.72263750775806
Cl         15.19049376232246   -6.07883358367254    0.70315745757128
Cl        -14.00361599854685   14.98702002346397    1.26722146582370
Cl        -15.51415457250645   14.06964035769163    3.82669690922993
H           4.87855285140923   -2.92160605626006   -2.38812180242209
H           3.87386295801167   -4.64627482122697   -3.80205323882110
H           0.98675499847311   -5.46122125159079   -0.77208419663884
H           2.00028912293480   -3.74807285107492    0.65669880536328
H           3.32257707619218   -0.65837590156765    2.32210053652560
H           3.41444901210344   -1.33533973156099    4.67075992836893
H           5.01020327757411   -5.12117123190541    3.52857736915928
H           4.90484238855713   -4.45500265849676    1.17309480261555
H           0.70387711766588   -6.36033790982506   -3.04413757205511
H           1.91100428843527   -6.03164746822058   -4.29573199402512
H           2.31775951292463   -7.87112546904871   -1.88743576482919
H           2.03621077346602   -8.39871969372783   -3.55029489873341
H           3.52308417613331   -7.54089384448035   -3.13116262740377
H           5.06243575650875   -4.39272812340562    5.88138053322066
H           4.36630997400079   -2.83625140544448    6.35459235408800
H           2.77201220992001   -5.28375779352288    5.45055752298806
H           2.92973486800483   -4.71633952948853    7.11639442116509
H           2.07721705764056   -3.73267319192458    5.92140956814332
H           6.94396580257844   -3.35516637785236    0.08465184208901
H           9.63885686689767   -0.74681175420099   -1.14341006041726
H          10.38784269270755   -6.51073194388788    1.26570042818164
H          14.15884557689230   -3.69848850407628   -0.35141857320122
H         -11.76628494772206    7.22583847171301    3.03897357625808
H         -14.84477036608723   11.35136144114042    4.37188442546818
H         -12.46984683173795   12.85657927087717    0.26404244927663
H           4.50082431295599    2.19110131302229   -1.35432729878653
H           1.32176657886721   -1.31422745495197    0.30608799508413
H          -4.01372229300926    7.07749102559493   -0.49638817151944
H          -7.11383533085862    3.63016673650574    1.41741419159154
H          -9.26250958352320    9.46162581485278    1.06770001369779
H           3.18561435489982    2.94019483653101    1.26108019330812
H           3.76647938088468    4.80966287233797    2.73038746685547
H           1.76683417781554    7.50852708635794    0.10267600465700
H           1.20084669907133    5.64308698152348   -1.38236405629687
H           0.06529092009734    2.43555467820670   -3.17167005843447
H           0.37278347388199    2.97031622952923   -5.53837175031275
H           4.06484024934414    4.90176403446428   -4.63193549517523
H           3.74993670992690    4.39217970118000   -2.25653747482033
H          -6.22619566283362    3.07471730454681   -1.46604893110380
H          -7.05812092606329    1.41222116737561   -3.05526527206662
H          -4.82511622000598   -1.62694921531451   -1.06364869094629
H          -4.00093279988603    0.03191752702174    0.54165492313597
H          -6.42853944415848    1.20815815445357    1.83473050587523
H          -6.54023703496994    0.43196416952815    4.15642704148412
H          -2.74606908149558    2.21396881417373    4.93756560433520
H          -2.64112447343698    3.01463520803848    2.62876617408591
H          -4.77990249645172    7.64067467818278    2.32817049782969
H          -3.81572084753938    9.31130721990873    3.83207035334962
H          -6.07733381084671   12.36955646574290    1.90480383427072
H          -7.03393612606016   10.70142997372906    0.38309587680986
H          -8.57876787949040    7.66186668250554   -1.55936512379051
H          -8.62800981817454    8.44212831383460   -3.86716675864075
H          -4.79521042163488   10.24387577270870   -3.35518382365645
H          -4.75014883815375    9.48642472089008   -1.02607325289202
H           2.44377487716714    8.22484526281188    2.35666405662325
H           3.29279756751886    7.10949058135266    3.43726196179147
H           4.48006395702865    8.38003294299440    0.92235428280676
H           4.83531005407401    8.86250394510513    2.58459976010446
H           5.32616061918355    7.26929359475215    1.99942027656664
H           3.46919237927175    4.35061835508859   -6.96210654199235
H           1.91100776231506    3.59850034273096   -7.33324263674178
H           2.30087608638984    6.47472113973351   -6.37108981603865
H           1.92908010304478    5.98500002875438   -8.02754609847566
H           0.74744250231293    5.72570708375816   -6.73945257259421
H          -6.72943500735734   -0.79727296807482   -4.09994442344474
H          -5.84239164931188   -2.06796887139011   -3.24496835795800
H          -8.60915423805352   -1.01843837422880   -2.47389800855262
H          -8.28039249000295   -2.55672323154656   -3.27830983660540
H          -7.72643348764215   -2.28577822478653   -1.62235767177649
H          -4.14183927206433    1.40342000061086    6.78360388991752
H          -5.72591858022506    0.68260486032875    6.46403373881514
H          -3.03318825994337   -0.63010490808663    5.85202304568879
H          -4.09842662638502   -1.04669052430690    7.19920260457278
H          -4.61227943129870   -1.34808945771761    5.53569717837563
H          -4.93404671218546   12.81967354115029    4.02668652395286
H          -4.01391031282264   11.54627028252192    4.84113505789384
H          -3.15966744709182   12.98175899090126    2.28014566169631
H          -2.49214912585113   13.26577441078651    3.89130094147200
H          -2.24322116320308   11.71073279870195    3.08967433265991
H          -5.77193944518087   10.03671790159374   -5.58837858143039
H          -7.33363366122013    9.23490030436934   -5.81608184427976
H          -6.93227782115188   12.01097771991716   -4.59977987653561
H          -7.53534159068662   11.67509002711695   -6.22631977335057
H          -8.48828247017932   11.20986142273775   -4.81274312699783
