94
 SCF done       -182.980942257830          0.000850193149
C          -4.02142827419443   17.78638875753947  -24.17965550402996
O          -3.65265959922669   16.82193712687338  -23.53163384629597
C          -4.39607622874789   17.77965523105278  -25.60744794440706
C          -4.40185524271264   16.72099667829829  -26.49132644643391
C          -4.78852647075741   16.96284179914616  -27.80380014657832
Cl         -4.80699998271550   15.67320183187641  -28.93774125321782
C          -5.15989910802578   18.25105828178362  -28.20218852519431
Cl         -5.63349786946331   18.53772988011176  -29.82801467106748
C          -5.15323996544697   19.31488265320142  -27.30528257524418
C          -4.76779668035257   19.07793479708836  -25.99660444565617
C          -4.65169930127481   19.96717827095120  -24.84026831000862
C          -4.94561679337332   21.30713970196105  -24.84663653081532
C          -4.84716959591912   22.18077194670648  -23.74388801910049
N          -4.79592010561989   22.95676672428954  -22.89771307648001
C          -5.39928755217658   22.01120993234674  -25.98231357451789
N          -5.76938012839694   22.64647502653070  -26.86386255031731
C          -4.17955047532362   19.16859415019056  -23.72717509584172
C          -3.90591916630632   19.64856453435696  -22.46650651778778
C          -3.42821872174278   19.00458559350424  -21.32375706635649
S          -3.04552319929009   17.28424600025035  -21.21907395391655
C          -2.55434602821671   17.48134906515721  -19.58044542146897
C          -2.68447839082621   18.81358764338599  -19.14623984774762
C          -3.17630838437514   19.67830482143583  -20.11293220214742
C          -3.44111806612665   21.12373408694368  -19.84735697509187
C          -4.91251547074328   21.34911022569695  -19.48742979656041
S          -2.15678584025726   19.06715649319343  -17.49194441986505
C          -1.75328836620028   17.38853455935352  -17.39958635619237
C          -2.03416904441854   16.67189784770253  -18.56778372712989
N          -1.68514658832021   15.35438196665906  -18.41408890864110
C          -1.44593417835004   14.60782470547800  -19.63283654704136
C          -1.15314899019644   15.20709504543736  -17.13851810599896
C          -1.16855371182737   16.48731024233303  -16.50242454017004
C          -0.57821879947256   16.71481446692605  -15.23997140186072
N          -0.48346316948383   17.84867160335874  -14.56273466362952
S           0.36575114335267   17.56660801234728  -13.21358557440955
N           0.64011224829853   15.98920126118821  -13.44108321586745
C           0.07656632361520   15.62555505498741  -14.58191436058597
C          -0.01489396522501   14.33832412342539  -15.15478091021741
C          -0.68396956569897   14.09304907186717  -16.38746155558665
N          -0.75862664191980   12.72364893191793  -16.56801654353326
C          -1.51007776576795   11.99712133998304  -17.56081569187780
C          -0.61237526607009   11.44467941514579  -18.67107702077800
C          -0.13377067047156   12.10187837006825  -15.50402346735297
C           0.36045945589348   13.09492299398420  -14.63520362411470
S           1.17312027780807   12.48753111273031  -13.26508131352473
C           0.83722616283536   10.84750434999087  -13.82731923014249
C           0.10984443434048   10.80723553237751  -15.04007961902844
C           1.97238094163005    9.50894074573703  -12.00133141098924
C           2.33637131996717    8.21675033181221  -11.45549712021673
C           2.03307767478572    6.97578488048146  -11.95850522386991
C           2.42411815909736    5.76058435979090  -11.35754017666064
N           2.70161177977527    4.73331223891623  -10.92648753342174
C           1.29880063134919    6.71108673023595  -13.13230127635524
N           0.71611710064976    6.40068414985858  -14.07353715178671
C           3.11498379766168    8.45743992415955  -10.24054592054057
C           3.71147526219106    7.58834916547092   -9.34203824336276
C           4.41014307741179    8.12048545759647   -8.26327496449304
Cl          5.15479178821071    7.04899776924107   -7.14585170083706
C           4.51630912921374    9.50245597265425   -8.07662694164711
Cl          5.38890126559405   10.12405416007776   -6.73470233090612
C           3.91799445377512   10.37730186754105   -8.97550587587932
C           3.22688801012511    9.84390515555261  -10.04285482804980
C           2.51585339940737   10.55395007408297  -11.12733542972966
O           2.41858362676760   11.75940850951547  -11.24843250187388
C          -0.02590386694775   14.84541844657171  -20.14291967448422
C          -0.38997274712408    9.52118451360281  -15.62652802113553
C          -1.67900926876142    9.07286353676798  -14.92919020196614
C           1.24854762509555    9.69065905691399  -13.15663980275874
H          -4.11229570702943   15.73307930782386  -26.16994555577433
H          -5.44557499820472   20.29243115328102  -27.65141329288378
H          -4.07356759609707   20.70674899511906  -22.32063359956266
H          -2.81726655759321   21.43587644291616  -19.00749600464619
H          -3.18269893921147   21.73686427754771  -20.71186660836631
H          -5.17814234558709   20.77418991579715  -18.60340054260257
H          -5.08317662636719   22.40225528473099  -19.28449375190813
H          -5.56066252190110   21.04768005233060  -20.30682891216534
H          -1.62681033235752   13.54839705149261  -19.49645948610500
H          -2.16389284123565   14.97601741859598  -20.37018815817141
H          -2.02082857546763   11.17088394109571  -17.05903408002837
H          -2.28743557369888   12.65445211065141  -17.95419336141823
H           0.08840424503738   10.71773373717159  -18.26900550439861
H          -1.21753727328994   10.95691416594579  -19.43113228357954
H          -0.02500106982838   12.23070065849710  -19.13623164782743
H           3.65418303127580    6.51799619920126   -9.45109101047964
H           3.99088340507555   11.44552046535357   -8.84595288425027
H           0.12775924963270   15.90210913713809  -20.34887311268830
H           0.70821758852477   14.53080594168164  -19.40309128106902
H           0.13443280806522   14.28865344292446  -21.06177040337127
H          -0.58495092409426    9.63360539533132  -16.68979641885367
H           0.35813774427339    8.73384719728308  -15.52467897192446
H          -2.45936768384959    9.82445378571405  -15.03487402174286
H          -2.02821655643997    8.14041177250297  -15.36401621810419
H          -1.50539969304353    8.91241232827715  -13.86848254068731
H           0.94766790255620    8.77520151379446  -13.64504892152880
