99
 SCF done       -199.350952670186          0.000869818472
C          -0.39224466873572    0.52573216875498    0.59959068534207
O          -0.40347147441529    1.73774580135546    0.47326721552127
C          -0.99722507185976   -0.23918426422314    1.71042997251355
C          -1.70608309975578    0.23665076814095    2.79514513636054
C          -2.19274963674988   -0.69201958629841    3.70126971429669
F          -2.88790821195740   -0.27594479353755    4.76682146859874
C          -1.96714562711247   -2.05555268709597    3.51240506078686
F          -2.45443502129094   -2.92967035066060    4.39955429649059
C          -1.24956142062279   -2.53259040256085    2.42481149840055
C          -0.75924970012109   -1.61029751055896    1.51450417825693
C           0.03103780404998   -1.77893552075975    0.29376038171116
C           0.57597091921202   -2.95934628764920   -0.14041617053680
C           1.45560917663539   -3.09243537900944   -1.23541517409371
N           2.20872052068659   -3.26932932105235   -2.08440030659378
C           0.37280681882034   -4.20290809177292    0.49445735508076
N           0.23614848368346   -5.24285415514745    0.96011212160051
C           0.18996655309563   -0.46872392314063   -0.30052696265885
C           0.71736336533558   -0.21252840891794   -1.54454533189311
C           0.92550979070971    0.99930986504043   -2.20493368644445
S           0.56804327223362    2.60518325117968   -1.59127093430571
C           1.11846719572620    3.30914237617184   -3.06754771170739
C           1.55602641212856    2.34546397809614   -3.99507724523374
C           1.45833279201610    1.04364568746318   -3.51407906521201
O           1.75718772619974   -0.07326465413426   -4.21885471725860
C           3.06331576127947   -0.62734522547119   -4.03232069360632
S           2.09656048270733    3.02330408160210   -5.51804005486747
C           1.73417913792525    4.59843773261174   -4.90434494120600
C           1.23248633887192    4.59725789217291   -3.59583183506451
N           0.97995979494018    5.87955404475647   -3.18869918439981
C           0.14604623768347    6.10230103036180   -2.02707943555458
C           1.30846393925288    6.72756553563853   -4.23117284030881
C           1.76168695037629    5.93277250265286   -5.32719180978705
C           2.06549847191260    6.49325871474487   -6.58812051161927
N           2.46216520240227    5.87982365728688   -7.69181956767632
S           2.59595128868249    6.97958987336016   -8.87096251493610
N           2.15593691909757    8.28337975016822   -8.01738874867391
C           1.88921522437842    7.90167552283432   -6.77831820328741
C           1.52649623685094    8.69751731256321   -5.66895593287168
C           1.29784075994330    8.14152669821230   -4.37468543725846
N           1.09159282550099    9.18291170154568   -3.48759991214292
C           1.15711079686802    9.21014171143718   -2.04276631065381
C           2.50481241240459    8.70347006805209   -1.53613691002332
C           1.16971204957754   10.35509473693951   -4.18855779494666
C           1.41603117651505   10.08667511885380   -5.53943419768192
S           1.52241983036358   11.50250803355185   -6.51916507593768
C           1.25613403025964   12.49032311850515   -5.08283109954427
C           1.08832774192138   11.72458544672772   -3.91567794925494
S           0.83134701444093   12.68150944939788   -2.50327770475716
C           0.97022100652109   14.14558497284580   -3.46316234681924
C           1.18051029422911   13.86302623567084   -4.83921994720369
O           1.24489120241024   14.89464239744377   -5.68088121718407
C           1.66245311379491   14.69957331073486   -7.02500369813347
C           0.93370700751320   15.45740343576679   -3.00207814081025
C           0.75226599094035   15.94698663245446   -1.72677433309111
C           0.76880670853309   17.34157182660601   -1.34672183590220
C           1.06639616803123   18.42169181329364   -2.13768071337438
C           1.05782686173851   19.75743553153686   -1.68373422683960
N           1.07291135775937   20.86345693417675   -1.37672903348769
C           1.44523760705902   18.37070825710179   -3.49592483162698
N           1.77132805690235   18.42756067755863   -4.59607066343011
C           0.44383306220621   17.40701861565825    0.08059364127377
C           0.30136691104315   18.48314146461259    0.94153558602237
C          -0.00927342803974   18.22020719068060    2.26819947977203
F          -0.15289517036393   19.24664057937527    3.11452868715911
C          -0.17479359857178   16.91800996287877    2.73838602172894
F          -0.47263677852450   16.70983347284742    4.02749531368771
C          -0.03440490908695   15.83602162378983    1.88400098808052
C           0.27248600130061   16.09883297670405    0.56424401803297
C           0.47054654413732   15.14081143451193   -0.54382982765885
O           0.40157867664713   13.92533245642798   -0.46132120385002
C          -1.23827629273998    6.60815366621704   -2.42383677039763
C           4.16651477219847    0.26875915098159   -4.57544941098439
C           3.17175935881659   14.52866829965570   -7.12973942586267
H          -1.87895655086445    1.29143153907372    2.93730413412368
H          -1.10415581975365   -3.59555841241652    2.32399740113482
H           0.99703378891363   -1.07004039171330   -2.14570894672956
H           3.23238882833611   -0.83981642056203   -2.96919547172581
H           3.02509403085434   -1.57215472524436   -4.57629551236031
H           0.04566706223049    5.13596785268254   -1.52752435202594
H           0.63627629106259    6.77591072319261   -1.32461083386258
H           1.03068245852653   10.25356286235082   -1.74535409808066
H           0.32690339762921    8.65169014375349   -1.61104699484808
H           3.30327973218495    9.34342231902945   -1.90411308117058
H           2.52099794745257    8.72331349578880   -0.45012040177216
H           2.70068112152907    7.68826689148814   -1.87370613192329
H           1.13924953771831   13.84657829284715   -7.46978826464526
H           1.34954206641804   15.61538515701522   -7.53171388240560
H           1.07470483277773   16.18032834229845   -3.79619960922609
H           0.41814975810966   19.50792227232491    0.62980850066678
H          -0.16173716329442   14.82743153916171    2.24337072716878
H          -1.17640180570695    7.53809461249755   -2.98447813536893
H          -1.73837492766502    5.86969893455556   -3.04607837338905
H          -1.83945964717529    6.77262723529772   -1.53408483526822
H           4.23973720693049    1.18819331560560   -3.99764962010773
H           3.96691602078614    0.52423375596406   -5.61319669168371
H           5.11568766302214   -0.25585559051559   -4.51554312326847
H           3.49636684812399   13.62759602690612   -6.61500869380075
H           3.45472430547264   14.45300608737096   -8.17504871930092
H           3.67112497053453   15.38695415156757   -6.68723421058792
