104
 SCF done       -180.687099540356          0.000435009680
C          -6.14170057192928   -3.06577490468825   -0.86335491431631
O          -7.04330236001037   -2.25562896310820   -0.72658107156547
C          -6.25078462645531   -4.39042612630088   -1.50192259287304
C          -7.35790671723786   -4.99158039350977   -2.06631694381164
C          -7.20738020043839   -6.25796999748070   -2.61451974343602
C          -5.97416790234465   -6.89195566785574   -2.58965116232976
C          -4.85821212068454   -6.28920575223272   -2.02224808069537
C          -4.99663819907380   -5.02493798605194   -1.47249908906879
C          -4.03523187566973   -4.13731584745164   -0.81613518040946
C          -2.70498142302527   -4.41714947641217   -0.62940392845877
C          -1.76019043464111   -3.57184341673248   -0.01223300273094
N          -0.92788589136686   -2.94546494135980    0.47417786305283
C          -2.08007792303238   -5.61222657123894   -1.04301441500127
N          -1.50331799683102   -6.55687016197626   -1.34910755149211
C          -4.74712086719520   -2.93518526797383   -0.43426011844712
C          -4.19637041487126   -1.86435925620144    0.22853059657415
C          -4.75060648202745   -0.64436300824001    0.62356487816437
S          -6.41086024838103   -0.13632891793051    0.30759042872952
C          -6.10742910109330    1.38088387188297    1.06552204938667
C          -4.78840910578288    1.46982033770086    1.54597938687763
C          -4.01549372230553    0.34366115960445    1.30334075444836
S          -4.41893300351108    3.00428407637471    2.30730329960433
C          -6.02897789388027    3.53111315910768    1.95353066483163
C          -6.81562645488605    2.56129943371821    1.31262231030858
N          -8.05597396094505    3.07501913130837    1.04589957096685
C          -8.97998696019022    2.43526603105047    0.13629218986136
C          -9.63513444219927    1.19413967548478    0.73728080437471
C          -8.06935983023748    4.38092157484854    1.48589983750996
C          -6.79839867569549    4.69863269769848    2.04684912246521
C          -6.52178141014284    6.01972063060957    2.44776103002658
N          -5.45734272912838    6.60550846290269    3.00248596690419
N          -5.78231584902409    7.87261574516029    3.05413717456666
C          -4.92949080727481    8.85747345235530    3.65390947351494
C          -5.57551084531403    9.39227185994737    4.92825711060742
N          -6.95587374667261    8.20107502193503    2.58499857203991
C          -7.48370551671935    7.04072500891401    2.18962932850937
C          -8.74230684403081    6.70455564793274    1.67436310058645
C          -9.07586229620780    5.37155485564578    1.42405723764454
N         -10.43102293844042    5.23844902965750    1.08156607803301
C         -11.29460779033572    4.23741995139717    1.69012684009156
C         -12.38494086784562    3.78529777375195    0.72706658987586
C         -10.95392927710432    6.54058032582167    1.01699744047951
C          -9.89543512595785    7.54814165253923    1.39451895455149
S         -10.34393608948035    7.60117068329252   -0.38820107921006
C         -12.75630161626071    8.05254881438294    1.77114113219325
C         -12.22152046071014    7.00364241896774    1.44612795551435
S         -10.06573301085635    8.96982642785763    2.52774065933107
C         -11.58494757884028    9.94345187846254    2.32049740715593
C         -12.83174339416686    9.40434405705026    2.09079216670299
C         -11.40750445594018   11.35531950285382    2.37451819474947
C         -10.38270001736356   12.08686055374455    2.89632518279572
C         -10.16791323487713   13.50620037611593    2.67314769560745
C         -10.83354617662007   14.30715344536005    1.78269189076783
C         -10.56590229749809   15.68032179695586    1.59506169401219
N         -10.40911701529690   16.79966753467345    1.39481462289629
C         -11.87030598987363   13.89129325237766    0.92051484565641
N         -12.71422902024031   13.63670465126502    0.18349114814507
C          -9.05561864261413   13.92463948156581    3.52300157263701
C          -8.44275957856535   15.15691548750392    3.69413211972378
C          -7.38566690311283   15.25300419468034    4.58918842462546
C          -6.94240504945531   14.15224408199279    5.30880455281221
C          -7.55236112104516   12.91612072429438    5.15032596020611
C          -8.59804896301449   12.81401133008410    4.25352333695194
C          -9.40708746944805   11.62701544226825    3.91635114575253
O          -9.35507013837266   10.54293506309630    4.45406528809927
C          -2.60051661248063    0.21710583597481    1.76460357492978
C          -2.52610661738890   -0.54146988884275    3.09255481698799
C         -14.12270124514383   10.15577755737032    2.02055802648966
C         -14.45553935916087   10.51649892598976    0.56806134233295
H          -8.30752901893124   -4.47882793537090   -2.07433780783018
H          -8.05473677164303   -6.75378231941241   -3.06372029736064
H          -5.87397729894449   -7.87698277480350   -3.02031350501593
H          -3.91370338674136   -6.80778372428081   -2.01809972255953
H          -3.15286789440319   -1.96275855103386    0.49445928239045
H          -9.72376325868509    3.17455018756300   -0.15941810144816
H          -8.42253402036922    2.13542573050869   -0.75848537480831
H          -8.89529085498089    0.41629570841785    0.90311278180587
H         -10.11892110177689    1.41459270830286    1.68571561984176
H         -10.38139907693854    0.81027759065462    0.04776705404312
H          -3.97423811049027    8.37183103422477    3.85881831515741
H          -4.78801967023964    9.67108634679084    2.93716093922166
H          -5.64807325593772    8.60562992602799    5.67549538917568
H          -4.98104038701887   10.20714543930610    5.33214545351624
H          -6.57755116283746    9.75013585791797    4.70157307825546
H         -10.67255273306486    3.40119360440885    2.00322182800043
H         -11.76169200195850    4.66295880022876    2.59071368882826
H         -11.95909106663652    3.35109128772299   -0.17366785702146
H         -13.01343743237678    3.04179197910137    1.20973038662267
H         -13.00674968005984    4.62965962515100    0.43855917786831
H         -12.19369213911950   11.91193933162552    1.88099569011094
H          -8.77008133204238   16.03063829301786    3.15498738064151
H          -6.90228457477431   16.20838380819830    4.72783174311261
H          -6.11854088590854   14.26126611644156    5.99799964328433
H          -7.22865834537754   12.04899178607648    5.70494178548062
H          -1.98867155623778   -0.29538977917068    1.02059935799960
H          -2.19741778678971    1.22203509543013    1.90519828469039
H          -2.92372860846694   -1.54788463867336    2.98429739609990
H          -1.49217294794879   -0.61312593125927    3.41769890135504
H          -3.09884435848776   -0.02188363258205    3.85728187841244
H         -14.91124027504167    9.50988528741541    2.41447877592746
H         -14.08615903375030   11.05697374174598    2.63283410902508
H         -14.46247277712933    9.62325713219938   -0.05251425412249
H         -15.43583807695302   10.98318549008538    0.52023722574808
H         -13.72558160996193   11.21267983804429    0.16201721594802
