# ORCA input file
# SCF done       -242.130947616241          0.000369353184
! wb97x-d3 def2-SVP def2/J RIJCOSX Grid4 TightSCF
%maxcore 5000
%tddft
    Mode sTDDFT
    Ethresh 5.0
    maxcore 5000
end

%pal
  nprocs 6
  end
* xyz 0 1
   C        1.23457        -0.57329        -0.18883
   C        1.08773         0.83549        -0.16486
   C       -0.19765         1.41384        -0.16253
   C       -1.27008         0.52986        -0.21226
   C       -1.12352        -0.87768        -0.24895
   C        0.16265        -1.45491        -0.24527
   S       -2.95318         0.98691        -0.18154
   C       -3.44517        -0.69547        -0.20502
   C       -2.37449        -1.54047        -0.23558
   S        2.91536        -1.03547        -0.21289
   C        3.40722         0.64573        -0.23292
   C        2.33889         1.49433        -0.20269
   C        0.34010        -2.89073        -0.31435
   C       -0.41341         2.84323        -0.09002
   C       -0.32505        -3.78720        -1.10061
   C        0.08585        -5.12861        -0.91982
   C        1.08061        -5.24708         0.00836
   S        1.51478        -3.70642         0.67648
   C       -1.37971         3.57916        -0.71404
   C       -1.36579         4.95398        -0.38232
   C       -0.39184         5.26177         0.52361
   S        0.54078         3.86317         0.95011
   C        4.78479         0.99013        -0.29832
   C       -4.82620        -1.03255        -0.22932
   S        5.28275         2.64563        -0.45421
   C        6.96556         2.17605        -0.50012
   C        7.10856         0.80047        -0.38382
   C        5.87206         0.14936        -0.27506
   C       -5.90467        -0.18927        -0.10774
   C       -7.15024        -0.82351        -0.21253
   C       -7.02431        -2.18829        -0.42933
   S       -5.34470        -2.67029        -0.48095
   C        7.93948         3.19477        -0.66852
   C       -8.01369        -3.18523        -0.63395
   C        7.68484         4.54498        -0.80912
   C        8.81766         5.34008        -0.99687
   C        9.98931         4.58935        -0.99825
   S        9.64676         2.89117        -0.75929
   S       -9.72066        -2.86700        -0.60346
   C      -10.09152        -4.53492        -0.97469
   C       -8.92893        -5.28797        -1.10531
   C       -7.77990        -4.51848        -0.90800
   C       11.33368         4.99621        -1.16758
   S       11.79994         6.63739        -1.48778
   C       13.48509         6.19132        -1.55641
   C       13.63395         4.82230        -1.33098
   C       12.44477         4.15807        -1.11823
   C       14.56302         7.05393        -1.80639
   C       14.57222         8.39524        -2.06275
   S       16.07540         9.25446        -2.36228
   C       15.22662        10.77162        -2.60048
   N       13.89066        10.58542        -2.45341
   C       13.45364         9.30740        -2.14811
   S       15.95363        12.18917        -2.95859
   O       12.27307         9.04319        -1.99231
   C       12.94330        11.67618        -2.57138
   C       12.82543        12.44788        -1.26317
   C        8.79756         6.82308        -1.18082
   C        7.40724         7.44218        -1.11557
   C        8.43766         0.11277        -0.38272
   C        8.35757        -1.39785        -0.20396
   C       -2.37390         5.91258        -0.93808
   C       -0.01935         6.58598         1.10018
   C        1.07001         7.26269         0.26414
   C       -0.49070        -6.25889        -1.71770
   C        1.74938        -6.47774         0.52133
   C        1.06570        -6.98748         1.79259
   C       -8.47130        -0.12731        -0.11455
   C       -8.36895         1.37113         0.13969
   C       -8.93375        -6.74837        -1.42296
   C       -7.54878        -7.38016        -1.47957
   C      -11.44750        -4.91740        -1.10617
   C      -12.54479        -4.08466        -0.90260
   C      -13.75135        -4.71778        -1.11272
   C      -13.62997        -6.05491        -1.49236
   S      -11.94870        -6.51285        -1.57207
   C      -14.73046        -6.88059        -1.76866
   C      -14.76977        -8.18269        -2.17765
   S      -16.29754        -8.99700        -2.47745
   C      -15.48065       -10.47435        -2.95657
   N      -14.13630       -10.31266        -2.86741
   C      -13.66775        -9.07981        -2.44604
   O      -12.47743        -8.84029        -2.32990
   C      -13.20837       -11.36350        -3.23605
   C      -12.95602       -11.37124        -4.73851
   S      -16.24351       -11.83885        -3.42778
   C        0.26093        -6.42848        -3.03896
   C       -3.70307         5.78008        -0.19313
   H       -2.48649        -2.60931        -0.22164
   H        2.45862         2.56213        -0.22392
   H       -1.06744        -3.49624        -1.82312
   H       -2.06552         3.16230        -1.42986
   H        5.75330        -0.91453        -0.18121
   H       -5.77322         0.86501         0.05309
   H        6.68064         4.92624        -0.77795
   H       -6.77918        -4.90582        -0.96608
   H       14.59855         4.34572        -1.33002
   H       12.36477         3.10143        -0.93121
   H       15.53280         6.56858        -1.79843
   H       11.98418        11.22493        -2.83642
   H       13.28493        12.33470        -3.37333
   H       12.49847        11.78659        -0.46402
   H       12.09893        13.24707        -1.37666
   H       13.78493        12.88379        -0.99539
   H        9.25577         7.06350        -2.14546
   H        9.43441         7.28083        -0.41731
   H        6.76831         7.04641        -1.90162
   H        7.48388         8.51840        -1.24833
   H        6.94097         7.24920        -0.15215
   H        9.05105         0.53891         0.41790
   H        8.94960         0.33860        -1.32412
   H        7.88048        -1.65072         0.73989
   H        9.36036        -1.81831        -0.20295
   H        7.79728        -1.85523        -1.01585
   H       -2.52995         5.68896        -1.99577
   H       -2.00849         6.93707        -0.85992
   H        0.34766         6.44552         2.11911
   H       -0.90172         7.22728         1.14338
   H        1.96117         6.63976         0.23424
   H        1.33317         8.22580         0.69445
   H        0.72493         7.41824        -0.75565
   H       -1.54168        -6.04693        -1.92552
   H       -0.44067        -7.18699        -1.14654
   H        2.79494        -6.25396         0.74316
   H        1.72372        -7.25402        -0.24559
   H        1.10583        -6.22801         2.56997
   H        1.56241        -7.88395         2.15545
   H        0.02212        -7.22234         1.59518
   H       -9.05227        -0.59087         0.68939
   H       -9.02705        -0.29881        -1.04236
   H       -7.85254         1.57061         1.07558
   H       -9.36662         1.79895         0.20296
   H       -7.83695         1.86604        -0.66924
   H       -9.43901        -6.89760        -2.38250
   H       -9.53933        -7.26873        -0.67428
   H       -6.94294        -6.91922        -2.25628
   H       -7.64316        -8.43942        -1.70496
   H       -7.03615        -7.27812        -0.52576
   H      -12.44294        -3.05439        -0.60925
   H      -14.70923        -4.24031        -1.00318
   H      -15.69270        -6.39688        -1.64142
   H      -13.63330       -12.31740        -2.91547
   H      -12.28160       -11.16186        -2.69370
   H      -13.88385       -11.55421        -5.27519
   H      -12.24984       -12.15853        -4.98505
   H      -12.54282       -10.41662        -5.05597
   H        0.20684        -5.51380        -3.62494
   H       -0.17051        -7.23987        -3.62060
   H        1.30923        -6.65222        -2.85373
   H       -4.07805         4.76196        -0.26959
   H       -4.44381         6.45758        -0.61155
   H       -3.57154         6.01623         0.86068
*
