# ORCA input file
# SCF done       -585.710044129510          0.000663242172
! wb97x-d3 def2-SVP def2/J RIJCOSX Grid4 TightSCF
%maxcore 5000
%tddft
    Mode sTDDFT
    Ethresh 5.0
    maxcore 5000
end

%pal
  nprocs 6
  end
* xyz 0 1
   C       12.28891        -2.94608       -10.12886
   C       12.08678        -2.33069       -11.37720
   C       12.36596        -0.95551       -11.54710
   C       12.84538        -0.13801       -10.52651
   C       13.00985        -0.74639        -9.26701
   C       12.72246        -2.12297        -9.09657
   C       11.60181        -2.92238       -12.58104
   C       11.54899        -2.05354       -13.61009
   S       12.06952        -0.45776       -13.19311
   C       13.43701        -0.14803        -8.05681
   C       13.50770        -1.01662        -7.00760
   S       13.02932        -2.63950        -7.45993
   C       12.07952        -4.36970        -9.94800
   C       13.16641         1.25384       -10.76661
   C       12.47700        -5.38962       -10.76486
   C       12.12300        -6.66395       -10.27758
   C       11.44692        -6.62323        -9.09767
   S       11.24542        -4.99053        -8.55203
   C       12.48884         2.15484       -11.54002
   C       13.09891         3.42351       -11.58490
   C       14.25235         3.49779       -10.86638
   S       14.60103         1.98530       -10.09898
   C       10.94713        -7.75818        -8.27219
   C       11.80129        -7.94434        -7.01645
   C       15.14138         4.67306       -10.64916
   C       14.97820         5.23619        -9.23547
   C       13.91541        -0.72452        -5.67589
   S       14.47928         0.85963        -5.25699
   C       14.76820         0.37015        -3.61118
   C       14.41107        -0.94907        -3.42758
   C       13.93551        -1.56479        -4.58400
   C       15.32412         1.27171        -2.64366
   C       15.29091         2.65177        -2.79064
   C       15.85858         3.53002        -1.86752
   C       16.47158         3.10899        -0.69399
   C       16.45061         1.69962        -0.46618
   C       15.98644         0.79666        -1.47258
   N       16.77135         1.19585         0.72768
   C       16.85434        -0.10051         0.91472
   C       16.80971        -0.96159        -0.23172
   N       16.28655        -0.49712        -1.34176
   F       14.70371         3.20125        -3.86951
   F       15.79043         4.84161        -2.16112
   C       17.09007         4.01596         0.22858
   C       17.35806        -2.31534        -0.26302
   C       16.93592        -0.58055         2.29219
   C       16.85248        -3.25336        -1.16421
   C       17.37536        -4.52248        -1.19526
   C       18.42931        -4.94956        -0.36586
   C       18.92988        -3.97173         0.49962
   C       18.41726        -2.69098         0.55667
   C       16.41500        -1.81713         2.65925
   C       16.49257        -2.25231         3.96710
   C       17.08728        -1.49588         4.98213
   C       17.57733        -0.24087         4.57531
   C       17.50462         0.21973         3.28364
   S       16.77680         5.72843         0.18387
   C       18.43978         4.83232         1.93216
   C       18.00413         3.71808         1.21852
   F       15.95594        -3.46859         4.23455
   F       19.96281        -4.24936         1.33349
   C       17.86914         6.01014         1.49941
   O       18.82167        -6.22419        -0.51261
   C       19.87728        -6.76121         0.27356
   C       20.04676        -8.21204        -0.14367
   F       16.86289        -5.41739        -2.05843
   F       18.14727         0.53698         5.51285
   O       17.24465        -1.80418         6.27852
   C       16.79803        -3.05170         6.79364
   C       17.15899        -3.07781         8.26898
   C       17.66228        10.98953         1.87097
   C       18.02910         9.65365         2.13343
   C       18.99122         9.35596         3.12983
   C       19.62987        10.32903         3.89048
   C       19.30552        11.66657         3.58362
   C       18.34168        11.96503         2.58860
   C       17.56411         8.48725         1.48252
   C       18.10691         7.33223         1.96699
   S       19.23845         7.63469         3.27085
   C       19.86664        12.83991         4.13415
   C       19.35415        13.99551         3.61686
   S       18.12237        13.68622         2.41182
   C       16.62839        11.30375         0.90670
   C       20.56411         9.97711         4.93996
   C       15.42771        10.67680         0.72291
   C       14.65426        11.24510        -0.30815
   C       15.26076        12.29703        -0.92271
   S       16.81036        12.62038        -0.21820
   C       21.50174         8.98350         4.94125
   C       22.21018         8.88478         6.15429
   C       21.81190         9.78508         7.09341
   S       20.54948        10.79888         6.47715
   C       14.74338        13.15345        -2.02632
   C       14.38247        14.55137        -1.52007
   C       22.29557         9.94550         8.49461
   C       22.85119        11.34310         8.76706
   C       19.76700        15.31828         3.93253
   S       21.07388        15.56412         5.04897
   C       21.01828        17.28321         4.81386
   C       20.01956        17.61891         3.91931
   C       19.32469        16.51828         3.41959
   C       21.94639        18.11461         5.51649
   C       21.91197        19.50393         5.51412
   C       22.85386        20.28557         6.18377
   C       23.87514        19.75783         6.96611
   C       23.87984        18.33485         7.07752
   C       23.00813        17.53710         6.27675
   N       24.60548        17.71443         8.00985
   C       24.66799        16.40427         8.06207
   C       24.13710        15.64318         6.96611
   N       23.25395        16.23064         6.18984
   F       20.95877        20.16547         4.83302
   F       22.73296        21.61949         6.04917
   C       24.85251        20.57168         7.62669
   C       24.55961        14.28939         6.61679
   C       25.22121        15.81499         9.27993
   C       23.75543        13.50236         5.78969
   C       24.15303        12.23720         5.43914
   C       25.35537        11.65179         5.87890
   C       26.15311        12.48276         6.67287
   C       25.78127        13.76443         7.02951
   C       24.76658        14.59109         9.76038
   C       25.28008        14.06238        10.92780
   C       26.26652        14.70613        11.68175
   C       26.68120        15.95159        11.17410
   C       26.18018        16.50538        10.02165
   S       24.64172        22.28810         7.83145
   C       26.80064        21.20296         8.71964
   C       26.06203        20.16660         8.15424
   F       24.77652        12.86736        11.32682
   F       27.35632        12.05188         7.12814
   C       26.17262        22.42721         8.63254
   O       25.58352        10.39160         5.48167
   C       26.73893         9.68454         5.91175
   C       26.63849         8.28204         5.33686
   F       23.36423        11.50733         4.63283
   F       27.61928        16.62278        11.86510
   O       26.85835        14.30055        12.81543
   C       26.52528        13.05397        13.41169
   C       27.39438        12.90865        14.64909
   C       26.41151        27.34486         9.51571
   C       26.77196        25.98266         9.48012
   C       28.01958        25.56113        10.00142
   C       28.95079        26.43134        10.55781
   C       28.61222        27.80021        10.54328
   C       27.36277        28.22073        10.02341
   C       26.02860        24.90266         8.94800
   C       26.64530        23.69209         9.07930
   S       28.20257        23.83104         9.87221
   C       29.39306        28.89635        10.98025
   C       28.77462        30.10459        10.83743
   S       27.17532        29.94934        10.14077
   C       25.10918        27.78517         9.05994
   C       30.19024        25.94382        11.12716
   C       23.89498        27.19899         9.28574
   C       22.82118        27.89908         8.70184
   C       23.20710        29.01197         8.02032
   S       24.92451        29.22771         8.10299
   C       30.99675        24.94195        10.66372
   C       32.11262        24.69674        11.48722
   C       32.15836        25.49124        12.59129
   S       30.81383        26.58148        12.62481
   C       22.35888        30.00772         7.30787
   C       22.27856        31.32197         8.08731
   C       33.19731        25.54602        13.65721
   C       34.06953        26.79553        13.51545
   C       29.29028        31.38801        11.16970
   S       30.86150        31.56201        11.88086
   C       30.69081        33.29335        11.94104
   C       29.47649        33.68072        11.41361
   C       28.69018        32.61471        10.98280
   C       31.71705        34.14504        12.47085
   C       33.04009        33.74866        12.60580
   C       34.04093        34.58864        13.10229
   C       33.80940        35.90707        13.46179
   C       32.47232        36.36762        13.28797
   C       31.42626        35.47237        12.90722
   N       32.18463        37.66868        13.37318
   C       30.94439        38.09129        13.31571
   C       29.88825        37.12095        13.38146
   N       30.16526        35.87566        13.07427
   F       33.40898        32.50349        12.25445
   F       35.27478        34.06573        13.21635
   C       34.83691        36.78190        13.96312
   C       28.52825        37.41503        13.82534
   C       30.73393        39.52513        13.13395
   C       27.46672        36.61243        13.40452
   C       26.19184        36.88493        13.83533
   C       25.87604        37.93994        14.71213
   C       26.97046        38.70122        15.13496
   C       28.26082        38.45434        14.71049
   C       29.60899        40.02019        12.48266
   C       29.44153        41.37918        12.30575
   C       30.37028        42.32147        12.75937
   C       31.50553        41.77842        13.39015
   C       31.70063        40.43161        13.57177
   S       36.52242        36.52465        13.61329
   C       35.87889        38.54947        15.04406
   C       34.67088        37.90122        14.74247
   F       28.31736        41.77282        11.65776
   F       26.80305        39.73234        15.99970
   C       36.95697        37.92533        14.49466
   O       24.58111        38.07709        15.03464
   C       24.14970        39.10709        15.91444
   C       22.64233        38.97386        16.04774
   F       25.17946        36.11124        13.40558
   F       32.44003        42.63816        13.83376
   O       30.32449        43.65911        12.66710
   C       29.22166        44.31422        12.05406
   C       29.48907        45.80713        12.13973
   H       11.29188        -3.94875       -12.65100
   H       11.22118        -2.23859       -14.61437
   H       13.67479         0.89447        -7.94923
   H       13.04340        -5.23383       -11.66594
   H       12.36295        -7.58002       -10.78831
   H       11.56031         1.92907       -12.03232
   H       12.69485         4.25375       -12.13678
   H       10.97194        -8.66906        -8.87425
   H        9.91193        -7.57082        -7.97616
   H       12.83474        -8.14645        -7.28860
   H       11.42738        -8.77617        -6.42477
   H       11.77536        -7.04322        -6.40807
   H       14.89234         5.44208       -11.38358
   H       16.18351         4.37998       -10.79927
   H       13.94887         5.54487        -9.06764
   H       15.62693         6.09707        -9.09515
   H       15.23673         4.48186        -8.49580
   H       14.47689        -1.43235        -2.47157
   H       13.61041        -2.58882        -4.63633
   H       16.05542        -2.98878        -1.83817
   H       18.87349        -1.99317         1.24036
   H       15.92658        -2.45577         1.94081
   H       17.88870         1.19696         3.04480
   H       19.15466         4.79751         2.73508
   H       18.35515         2.71846         1.38913
   H       19.62435        -6.69586         1.33830
   H       20.80263        -6.20133         0.09487
   H       19.12465        -8.75955         0.03040
   H       20.84785        -8.66738         0.43081
   H       20.28736        -8.26861        -1.20160
   H       17.29133        -3.87558         6.26470
   H       15.71369        -3.14652         6.66322
   H       18.23383        -2.97615         8.39110
   H       16.83569        -4.01675         8.70846
   H       16.67336        -2.25441         8.78522
   H       16.87427         8.49748         0.65804
   H       20.64577        12.83825         4.87332
   H       15.09038         9.86036         1.33633
   H       13.68076        10.88136        -0.58595
   H       21.70871         8.36721         4.08571
   H       22.98942         8.16315         6.32443
   H       13.86036        12.67633        -2.45660
   H       15.50080        13.24168        -2.80931
   H       13.61755        14.48858        -0.74933
   H       14.00581        15.16315        -2.33599
   H       15.25984        15.03513        -1.09680
   H       23.06799         9.19669         8.68372
   H       21.46750         9.75581         9.18432
   H       23.72009        11.53609         8.14114
   H       23.14583        11.43215         9.80958
   H       22.09559        12.09552         8.54909
   H       19.80339        18.62804         3.62274
   H       18.52518        16.58581         2.70310
   H       22.82208        13.88794         5.42135
   H       26.47351        14.34070         7.62162
   H       23.99784        14.03740         9.24571
   H       26.53309        17.46996         9.69834
   H       27.76733        21.08079         9.17531
   H       26.39448        19.14763         8.10274
   H       26.77185         9.64876         7.00719
   H       27.64459        10.18330         5.54768
   H       25.73804         7.79413         5.69938
   H       27.50546         7.69995         5.63462
   H       26.59225         8.32787         4.25245
   H       26.72073        12.23603        12.70830
   H       25.46389        13.03907        13.68570
   H       28.44438        12.92786        14.37073
   H       27.17224        11.96853        15.14504
   H       27.20413        13.72945        15.33490
   H       25.07971        25.01506         8.45535
   H       30.38963        28.80991        11.37322
   H       23.77011        26.31766         9.88924
   H       21.79601        27.58348         8.78316
   H       30.81919        24.42124         9.74023
   H       32.85624        23.95113        11.26779
   H       21.35748        29.59081         7.18188
   H       22.77559        30.20445         6.31694
   H       21.85427        31.15111         9.07410
   H       21.65392        32.03739         7.55836
   H       23.27197        31.74791         8.20843
   H       33.81981        24.65148        13.58673
   H       32.71799        25.55387        14.63939
   H       34.56736        26.80197        12.54846
   H       34.82553        26.81828        14.29619
   H       33.46010        27.69290        13.59522
   H       29.19189        34.71194        11.32630
   H       27.71496        32.71955        10.54123
   H       27.64055        35.77842        12.74569
   H       29.04976        39.07837        15.09872
   H       28.85310        39.36067        12.08743
   H       32.59989        40.07977        14.04882
   H       35.94677        39.43995        15.64283
   H       33.71050        38.22010        15.10080
   H       37.98985        38.20423        14.56223
   H       24.41252        40.08852        15.50267
   H       24.63162        38.99334        16.89249
   H       22.17179        39.08027        15.07429
   H       22.26411        39.74288        16.71458
   H       22.38962        37.99612        16.44830
   H       28.29368        44.06074        12.57987
   H       29.13188        44.00116        11.00735
   H       29.58279        46.10948        13.17904
   H       28.67039        46.35283        11.68028
   H       30.41464        46.04907        11.62490
*
