# ORCA input file
# SCF done       -445.322429743693          0.000875971168
! wb97x-d3 def2-SVP def2/J RIJCOSX Grid4 TightSCF
%maxcore 5000
%tddft
    Mode sTDDFT
    Ethresh 5.0
    maxcore 5000
end

%pal
  nprocs 6
  end
* xyz 0 1
   C        4.17414        -2.84616        -4.38382
   C        4.64739        -4.16121        -4.54941
   C        5.93701        -4.51614        -4.09029
   C        6.79837        -3.62762        -3.44585
   C        6.33155        -2.30656        -3.29584
   C        5.04588        -1.94953        -3.77111
   C        3.97988        -5.26757        -5.15369
   C        4.70734        -6.40117        -5.12761
   S        6.25585        -6.20536        -4.38426
   C        6.99505        -1.20689        -2.69725
   C        6.25474        -0.06268        -2.66958
   S        4.68768        -0.27964        -3.42261
   C        2.84663        -2.42860        -4.78798
   C        8.08098        -4.06547        -2.93727
   C        8.92218        -4.98818        -3.49958
   C       10.07620        -5.25971        -2.72811
   C       10.09161        -4.53077        -1.56449
   S        8.70772        -3.50671        -1.41130
   C        2.49128        -1.22048        -5.32411
   C        0.40683        -2.19469        -5.14960
   S        1.44680        -3.43144        -4.53506
   C        6.61291         1.19405        -2.10656
   S        8.15081         1.42588        -1.33157
   C        7.73495         3.06488        -0.92100
   C        6.47725         3.38955        -1.38583
   C        5.84868         2.33883        -2.05174
   C        8.65756         3.85487        -0.16185
   C        8.40705         5.12653         0.33904
   C        9.31313         5.84870         1.12956
   C       10.56903         5.38017         1.49524
   C       10.86397         4.10047         0.97000
   C        9.93973         3.36257         0.17874
   N       11.96064         3.34569         1.10858
   N       11.69097         2.25556         0.44666
   N       10.52220         2.19636        -0.12683
   C       11.49598         6.07520         2.33782
   C       12.64478         1.18984         0.33085
   C       13.78686         1.59887        -0.59320
   C       11.28426         7.18786         3.12486
   C       12.40998         7.57389         3.84808
   C       13.50878         6.77207         3.61695
   S       13.13030         5.50228         2.49501
  Cl       11.31589        -4.56453        -0.37318
  Cl       -1.28401        -2.41558        -5.25249
   F        7.23157         5.73589         0.08876
   F        8.89908         7.06562         1.53385
   C        1.10060        -1.07550        -5.53947
   O        0.45250        -0.00781        -6.05536
   O       11.08333        -6.11168        -3.02138
   C       10.93816        -6.91992        -4.17753
   C        1.22076         1.15195        -6.32975
   C       12.12129        -7.87241        -4.22341
   C        0.26362         2.23932        -6.78878
   C       17.13329         8.36294         6.66525
   C       16.49800         7.68461         5.60575
   C       17.25054         6.87168         4.72302
   C       18.63129         6.70311         4.82352
   C       19.27522         7.41877         5.85674
   C       18.51486         8.21910         6.74505
   C       15.12493         7.71123         5.26696
   C       14.80082         6.92296         4.20109
   S       16.20669         6.10636         3.55193
   C       20.65848         7.47141         6.15931
   C       20.95861         8.23484         7.24917
   S       19.52647         8.95192         7.95820
   C       16.40718         9.14274         7.64536
   C       19.34700         5.82697         3.92069
   C       19.06062         5.58692         2.60302
   C       19.90452         4.62883         1.99481
   C       20.83593         4.14020         2.87727
   S       20.68925         4.84930         4.44693
   C       16.81924        10.29828         8.25288
   C       14.83199         9.96045         9.37631
   S       14.87854         8.61474         8.29214
   C       22.23381         8.51667         7.81232
   S       23.70246         7.91013         7.10862
   C       24.65643         8.71812         8.31976
   C       23.85367         9.39772         9.21250
   C       22.49520         9.28365         8.92703
   C       26.08484         8.63422         8.27156
   C       26.96193         9.31166         9.10800
   C       28.35595         9.22792         8.99580
   C       29.02560         8.46806         8.04322
   C       28.15714         7.74830         7.18353
   C       26.74003         7.83472         7.30555
   N       28.41011         6.90922         6.16746
   N       27.23255         6.54090         5.74432
   N       26.20643         7.04636         6.36684
   C       30.45081         8.42037         7.92181
   C       27.06921         5.61563         4.65775
   C       26.15090         6.20088         3.59344
   C       31.18359         7.72190         6.98320
   C       32.55980         7.89985         7.11329
   C       32.90448         8.73400         8.15565
   S       31.49779         9.30771         8.99066
  Cl       22.04475         2.98450         2.52772
  Cl       13.52851        10.19712        10.45450
   F       26.49478        10.11425        10.08333
   F       29.06472         9.95732         9.88005
   C       15.92750        10.77775         9.24055
   O       16.06153        11.88476        10.00321
   O       19.86594         4.19078         0.71652
   C       18.79909         4.65123        -0.09644
   C       17.28538        12.59538         9.91038
   C       18.88683         3.92240        -1.42702
   C       17.25779        13.69773        10.95585
   C       36.51883        10.95242        10.80394
   C       35.88497        10.19241         9.80017
   C       36.65367         9.57534         8.78266
   C       38.04164         9.66161         8.70738
   C       38.67512        10.44710         9.69336
   C       37.90257        11.07263        10.70262
   C       34.50111         9.94580         9.64103
   C       34.19896         9.14729         8.57693
   S       35.63559         8.66645         7.69526
   C       40.05637        10.73456         9.82870
   C       40.35264        11.51928        10.90568
   S       38.91803        11.95215        11.80921
   C       35.80253        11.55165        11.90958
   C       38.77788         8.95564         7.67956
   C       38.40316         8.76765         6.37665
   C       39.30341         7.97195         5.62990
   C       40.36311         7.54967         6.39427
   S       40.27371         8.13205         8.01973
   C       36.09826        12.73184        12.53864
   C       34.36396        12.00681        13.87638
   S       34.48009        10.74281        12.70290
   C       41.61794        12.01399        11.33488
   S       41.71076        13.13058        12.66103
   C       43.44103        13.20950        12.52791
   C       43.89339        12.40495        11.50247
   C       42.87051        11.73482        10.83093
   C       44.16919        14.04175        13.43894
   C       45.54820        14.18008        13.49992
   C       46.20227        15.00471        14.42899
   C       45.55635        15.77212        15.38937
   C       44.14405        15.65566        15.34989
   C       43.48612        14.82004        14.40306
   N       43.18660        16.22917        16.09519
   N       42.06964        15.76174        15.61198
   N       42.17040        14.92875        14.61552
   C       46.22373        16.61073        16.34278
   C       40.79345        16.12963        16.15684
   C       40.08235        14.90229        16.71397
   C       45.62997        17.38541        17.31244
   C       46.55533        18.09390        18.09296
   C       47.84395        17.85876        17.71924
   S       47.95691        16.77093        16.40338
  Cl       41.66144         6.57504         5.86233
  Cl       33.19842        11.96556        15.12382
   F       46.33737        13.50273        12.64426
   F       47.54803        15.02711        14.35803
   C       35.28420        13.00351        13.66172
   O       35.34589        14.07864        14.48058
   O       39.20973         7.62102         4.32789
   C       38.05131         8.03415         3.62333
   C       36.41770        14.98460        14.28241
   C       38.13996         7.46219         2.21824
   C       36.35589        16.01646        15.39684
   H        3.00111        -5.20518        -5.59036
   H        4.44160        -7.36619        -5.51194
   H        7.99061        -1.24566        -2.29659
   H        8.73887        -5.42874        -4.46123
   H        3.21275        -0.47241        -5.59375
   H        6.02305         4.35259        -1.24841
   H        4.86208         2.39907        -2.47640
   H       12.10795         0.32509        -0.06186
   H       13.03154         0.97072         1.32888
   H       13.40978         1.81172        -1.59056
   H       14.51328         0.79429        -0.65821
   H       14.27650         2.48753        -0.20278
   H       10.34295         7.70071         3.18624
   H       12.42749         8.42024         4.50959
   H       10.92232        -6.28672        -5.07538
   H        9.99513        -7.48035        -4.12527
   H        1.95709         0.93462        -7.11583
   H        1.75583         1.46789        -5.42406
   H       13.04948        -7.30932        -4.26592
   H       12.04795        -8.50945        -5.09998
   H       12.13332        -8.49160        -3.33077
   H       -0.27057         1.91210        -7.67639
   H        0.81701         3.14556        -7.01725
   H       -0.46121         2.44965        -6.00732
   H       14.39808         8.29533         5.79731
   H       21.42299         6.97586         5.59090
   H       18.29346         6.11660         2.07111
   H       17.71678        10.81389         7.96808
   H       24.23378         9.95887        10.04499
   H       21.71685         9.74439         9.50944
   H       26.63523         4.69187         5.05261
   H       28.06651         5.40902         4.26635
   H       25.19472         6.46038         4.03984
   H       25.98840         5.47184         2.80525
   H       26.59049         7.09555         3.15954
   H       30.71316         7.11048         6.23588
   H       33.29327         7.43974         6.47489
   H       18.88819         5.73563        -0.24892
   H       17.83873         4.44257         0.39383
   H       17.39189        13.02503         8.90470
   H       18.12694        11.91360        10.09260
   H       19.84341         4.12700        -1.89968
   H       18.08571         4.25323        -2.08150
   H       18.80154         2.85080        -1.26955
   H       16.41614        14.36016        10.77412
   H       18.18005        14.26976        10.91267
   H       17.15015        13.26619        11.94708
   H       33.74064        10.35001        10.28322
   H       40.80476        10.38682         9.14272
   H       37.52588         9.22223         5.95653
   H       36.85033        13.40810        12.17913
   H       44.93125        12.30372        11.24497
   H       43.03905        11.06224        10.00978
   H       40.19516        16.57766        15.35839
   H       40.98446        16.87085        16.93425
   H       39.95801        14.16234        15.92762
   H       39.10593        15.18343        17.09655
   H       40.66129        14.46158        17.52178
   H       44.56472        17.42768        17.43943
   H       46.27858        18.75075        18.89807
   H       48.74076        18.26712        18.14161
   H       38.00817         9.13149         3.58670
   H       37.15187         7.66365         4.13365
   H       36.31721        15.47525        13.30451
   H       37.37426        14.44492        14.30814
   H       39.03481         7.83013         1.72411
   H       37.26648         7.75729         1.64407
   H       38.19082         6.37784         2.26210
   H       35.40181        16.53513        15.36713
   H       37.15892        16.73840        15.27884
   H       36.44935        15.52567        16.36165
*
