# ORCA input file
# SCF done       -428.487571682435          0.000362187431
! wb97x-d3 def2-SVP def2/J RIJCOSX Grid4 TightSCF
%maxcore 5000
%tddft
    Mode sTDDFT
    Ethresh 5.0
    maxcore 5000
end

%pal
  nprocs 6
  end
* xyz 0 1
   C       -2.78171         3.68137         1.21191
   C       -2.98471         3.70045         2.61283
   C       -1.97673         3.96920         3.52811
   C       -0.69058         4.17131         3.00310
   C       -0.48945         4.14770         1.60128
   C       -1.50832         3.93594         0.68303
   C       -3.98506         3.37037         0.50963
   C       -5.04178         3.19682         1.32725
   S       -4.65853         3.38713         3.00501
   C        0.52077         4.38328         3.71251
   C        1.60619         4.54527         2.90154
   S        1.18014         4.45352         1.20487
   C       -2.24560         4.06583         4.96887
   C       -1.24952         4.01639        -0.76114
   C        2.97244         4.73785         3.25973
   C        3.52508         4.88445         4.51522
   C        4.90920         5.04423         4.48914
   C        5.44086         5.02151         3.21523
   S        4.19038         4.79530         2.02964
   C        6.81517         5.18208         2.85236
   C        7.28086         5.16664         1.54238
   C        8.61628         5.37441         1.17254
   C        9.63352         5.61325         2.08661
   C        9.19320         5.59788         3.43137
   C        7.83624         5.39484         3.81291
   F        6.41251         4.94763         0.53314
   F        8.88117         5.33620        -0.14766
   N        9.90331         5.77501         4.55063
   N        9.02773         5.67976         5.51060
   N        7.79372         5.45768         5.15255
   C        9.41058         5.80861         6.88894
   C       10.44782         4.75347         7.25074
   C       11.00229         5.88135         1.76510
   C       -2.95749         3.05669         5.60919
   C       -3.25952         3.16402         6.95724
   C       -2.81709         4.26806         7.68154
   C       -2.09720         5.26168         7.04848
   C       -1.81767         5.17313         5.69562
   C       -0.14307         3.36808        -1.30068
   C        0.17603         3.52315        -2.64040
   C       -0.65450         4.26795        -3.47053
   C       -1.77241         4.88513        -2.94249
   C       -2.06187         4.78296        -1.59269
   S        1.63363         2.79793        -3.33103
   C        2.81401         2.93131        -1.92722
   S       -4.18259         1.94218         7.83567
   C       -5.05917         1.03933         6.50166
   C        4.22252         3.11831        -2.45485
   C       -6.20248         0.24734         7.10653
   S       12.15553         6.06889         3.05401
   C       13.42893         6.39704         1.91536
   C       12.96274         6.35172         0.62095
   C       11.60129         6.05996         0.53594
   C       16.56172         6.94907         3.80826
   C       17.17421         7.21581         2.55771
   C       18.51412         7.54255         2.43038
   C       19.25367         7.61955         3.62374
   C       18.65258         7.31492         4.87145
   C       17.31746         6.96775         4.99520
   C       15.17978         6.67640         3.66587
   C       14.74923         6.66518         2.37144
   S       16.03949         7.03247         1.24288
   C       20.61625         7.96918         3.77000
   C       21.07952         7.87664         5.04957
   S       19.82025         7.39150         6.17086
   C       19.15731         7.77877         1.13118
   C       16.69174         6.61210         6.27570
   C       22.41818         8.10865         5.47152
   C       22.96995         8.01878         6.73031
   C       24.33729         8.29390         6.75271
   C       24.85631         8.60090         5.51168
   S       23.61682         8.54239         4.29343
   C       26.20953         8.94200         5.19689
   C       26.64603         9.30161         3.92671
   C       27.96218         9.66718         3.61541
   C       28.98877         9.69694         4.54928
   C       28.57801         9.31153         5.84779
   C       27.23797         8.95390         6.17251
   F       25.76835         9.31574         2.90248
   F       28.20134         9.99344         2.33038
   N       29.29905         9.22891         6.97160
   N       28.44458         8.85169         7.87990
   N       27.21578         8.67011         7.48323
   C       28.83653         8.64970         9.24675
   C       29.85603         7.52286         9.35222
   C       30.34423        10.07465         4.28488
   C       20.37250         7.16118         0.84507
   C       21.02373         7.41794        -0.35054
   C       20.43039         8.24499        -1.29972
   C       19.20824         8.82922        -1.03091
   C       18.57769         8.61616         0.18296
   C       15.90423         5.46439         6.34624
   C       15.23699         5.14402         7.51584
   C       15.39282         5.94927         8.64251
   C       16.20378         7.06452         8.58322
   C       16.84548         7.40821         7.40492
   S       14.16132         3.75006         7.67538
   C       14.00358         3.11283         5.96334
   S       22.60476         6.72147        -0.72992
   C       23.36940         6.55776         0.93186
   C       13.01467         1.96295         5.94964
   C       24.87908         6.54630         0.79840
   S       31.54404         9.84356         5.52228
   C       32.78663        10.49129         4.49015
   C       32.27248        10.86723         3.27020
   C       30.90212        10.63047         3.15319
   C       36.00106        10.14265         6.28413
   C       36.61346        10.75115         5.16148
   C       37.98191        10.93958         5.05860
   C       38.75953        10.51701         6.15081
   C       38.14636         9.89244         7.26780
   C       36.78149         9.67346         7.35518
   C       34.59473        10.07106         6.14132
   C       34.13463        10.52922         4.94245
   S       35.43101        11.14697         3.93401
   C       40.16309        10.62154         6.30922
   C       40.62697        10.07147         7.47072
   S       39.33305         9.40644         8.44850
   C       38.58640        11.52415         3.85373
   C       36.14466         8.95801         8.46868
   C       41.97828         9.98899         7.91652
   C       43.10685        10.47864         7.29038
   C       44.28182        10.20780         7.98702
   C       44.07646         9.50538         9.15738
   S       42.38509         9.18264         9.39511
   C       45.07951         9.06664        10.08062
   C       44.81382         8.35668        11.24300
   C       45.80088         7.92047        12.13809
   C       47.15841         8.14810        11.96623
   C       47.46470         8.87378        10.78708
   C       46.45995         9.31850         9.87551
   F       43.54021         8.05103        11.55893
   F       45.36868         7.24154        13.21872
   N       48.64631         9.27669        10.29881
   N       48.34857         9.90444         9.19675
   N       47.08503         9.96745         8.88365
   C       49.36331        10.45627         8.34504
   C       49.77433         9.44317         7.28074
   C       48.17497         7.70365        12.87623
   C       38.08597        12.72042         3.34951
   C       38.61486        13.26404         2.18992
   C       39.67218        12.62702         1.54528
   C       40.17465        11.44521         2.05234
   C       39.63264        10.88447         3.19621
   C       35.22702         7.95089         8.17455
   C       34.53642         7.31288         9.18976
   C       34.80420         7.64063        10.51735
   C       35.74825         8.60444        10.80976
   C       36.41075         9.27583         9.79520
   S       33.29328         6.08950         8.89666
   C       33.01870         6.17022         7.08470
   S       38.02376        14.76642         1.47539
   C       36.34161        14.93577         2.18631
   C       31.86405         5.26126         6.71057
   C       35.55455        15.93752         1.36318
   S       47.80591         6.80708        14.32337
   C       49.46438         6.72214        14.73503
   C       50.26095         7.34261        13.82089
   C       49.53128         7.90229        12.76135
   H       -4.03388         3.26741        -0.55919
   H       -6.05193         2.95491         1.05985
   H        0.57935         4.38495         4.78554
   H        2.94088         4.87939         5.41746
   H        5.52505         5.17633         5.35916
   H        8.50072         5.70094         7.48108
   H        9.82991         6.80788         7.03765
   H       10.02807         3.75601         7.14406
   H       10.77504         4.88592         8.27744
   H       11.30836         4.84962         6.59471
   H       -3.24814         2.18565         5.04455
   H       -3.05031         4.33625         8.73286
   H       -1.76303         6.12093         7.61109
   H       -1.28888         5.97015         5.19453
   H        0.45680         2.72899        -0.67221
   H       -0.40696         4.36724        -4.51587
   H       -2.41070         5.47440        -3.58428
   H       -2.90210         5.31782        -1.17572
   H        2.73842         2.02303        -1.32862
   H        2.50467         3.79148        -1.33517
   H       -4.34560         0.37587         6.01171
   H       -5.42590         1.78306         5.79405
   H        4.53637         2.25193        -3.03254
   H        4.90826         3.25658        -1.62170
   H        4.27319         3.99632        -3.09413
   H       -5.82728        -0.46832         7.83449
   H       -6.73084        -0.29351         6.32420
   H       -6.90205         0.91253         7.60698
   H       13.59602         6.52794        -0.23059
   H       11.07188         5.99060        -0.39575
   H       14.51135         6.51488         4.49248
   H       21.23714         8.29937         2.95697
   H       22.38981         7.75967         7.59834
   H       24.94921         8.27674         7.63522
   H       27.92670         8.42029         9.80349
   H       29.27230         9.58113         9.61872
   H       29.42599         6.58538         9.00818
   H       30.17016         7.40051        10.38418
   H       30.72848         7.75697         8.74904
   H       20.78853         6.46471         1.55632
   H       20.93901         8.42521        -2.23393
   H       18.75136         9.47523        -1.76552
   H       17.64682         9.11530         0.40399
   H       15.84053         4.83004         5.47717
   H       14.87442         5.68790         9.55223
   H       16.32490         7.68326         9.45972
   H       17.44532         8.30371         7.35476
   H       14.98743         2.77476         5.63738
   H       13.65873         3.93232         5.33116
   H       23.01114         5.63306         1.38628
   H       23.04593         7.41451         1.52152
   H       13.35825         1.15815         6.59525
   H       12.91182         1.58003         4.93660
   H       12.04011         2.29290         6.29981
   H       25.20422         5.71833         0.17259
   H       25.32997         6.44254         1.78306
   H       25.22626         7.47622         0.35565
   H       32.87927        11.29262         2.49033
   H       30.33846        10.86392         2.26938
   H       33.93248         9.70243         6.90388
   H       40.79988        11.09718         5.58641
   H       43.07652        11.01506         6.35954
   H       45.26295        10.50339         7.66595
   H       50.21410        10.71687         8.97688
   H       48.95178        11.35359         7.87894
   H       50.17059         8.54544         7.74881
   H       50.53958         9.87163         6.64016
   H       48.91646         9.17201         6.67044
   H       37.29894        13.22344         3.88802
   H       40.08245        13.06452         0.64831
   H       40.98743        10.94825         1.54360
   H       40.00177         9.94075         3.56894
   H       35.08087         7.67383         7.14330
   H       34.26861         7.13199        11.30414
   H       35.95920         8.84902        11.83988
   H       37.11557        10.05776        10.03156
   H       33.93489         5.84513         6.59127
   H       32.79731         7.20613         6.82406
   H       36.43792        15.27428         3.21856
   H       35.87775        13.94966         2.15773
   H       32.07076         4.23781         7.01423
   H       31.71556         5.28407         5.63315
   H       30.94770         5.58680         7.19545
   H       36.04171        16.90978         1.37916
   H       34.55090        16.04215         1.77000
   H       35.48177        15.60642         0.32999
   H       49.75706         6.21601        15.63370
   H       51.33172         7.39731        13.90338
   H       49.96462         8.43515        11.93625
*
