# ORCA input file
# SCF done       -340.042970228759          0.000311843234
! wb97x-d3 def2-SVP def2/J RIJCOSX Grid4 TightSCF
%maxcore 5000
%tddft
    Mode sTDDFT
    Ethresh 5.0
    maxcore 5000
end

%pal
  nprocs 6
  end
* xyz 0 1
   C       13.30813         5.79708        12.92053
   S       13.09678         5.18517        11.32078
   C       12.70605         6.77620        10.75196
   C       12.74488         7.72838        11.77402
   C       13.09632         7.12981        13.01514
   C       12.38016         7.14883         9.44695
   C       12.07234         8.47983         9.14474
   C       12.10611         9.47992        10.16908
   C       12.45336         9.10129        11.49625
   S       12.30755         6.11964         8.05472
   C       11.85794         7.48035         7.05041
   C       11.77237         8.63935         7.77370
   C       11.81426        10.82125         9.86958
   C       11.87667        11.74769        10.87699
   C       12.22221        11.37205        12.19829
   C       12.50842        10.06981        12.51378
   N       11.64636        13.10412        10.89210
   C       11.84986        13.59388        12.16707
   N       12.20529        12.51900        12.95837
   O       11.73779        14.74484        12.52364
   C       11.32847        13.94190         9.76386
   C       12.55910        14.22516         8.90685
   C       12.44414        12.62517        14.37504
   C       11.24735        12.13977        15.18791
   C       11.65660         7.30650         5.65311
   C       11.87446         6.17817         4.89588
   C       11.62083         6.36373         3.53586
   C       11.19059         7.63297         3.22302
   S       11.10094         8.62058         4.65872
   C       10.85736         8.17399         1.93835
   C       11.16835         7.48159         0.73718
   C       10.87553         8.06219        -0.54909
   C       10.23690         9.32749        -0.65192
   C        9.92351         9.95082         0.54686
   C       10.23316         9.40380         1.78806
   N       11.75303         6.29113         0.62009
   S       11.91476         5.93394        -0.93860
   N       11.25648         7.26770        -1.54740
   C        9.95136         9.91864        -1.92615
   S        8.89075        11.29748        -2.06748
   C        9.12056        11.35440        -3.79025
   C        9.97924        10.36033        -4.20231
   C       10.43508         9.55180        -3.16113
   C        8.46292        12.31804        -4.60418
   S        8.93525        12.49112        -6.28036
   C        7.72576        13.70869        -6.51220
   C        6.99114        13.96537        -5.34810
   C        7.44076        13.16729        -4.27257
   C        7.44018        14.38180        -7.69732
   C        6.38493        15.29964        -7.76141
   C        5.61712        15.59266        -6.58779
   C        5.92852        14.92651        -5.36871
   S        8.26908        14.21461        -9.20924
   C        7.17764        15.36265        -9.95187
   C        6.24744        15.83105        -9.06325
   C        4.57589        16.53505        -6.63124
   C        3.87711        16.79677        -5.48172
   C        4.18490        16.13183        -4.26944
   C        5.19411        15.20680        -4.20418
   N        2.82424        17.64249        -5.21963
   C        2.46880        17.54055        -3.88884
   N        3.30540        16.59966        -3.32076
   O        1.58030        18.14429        -3.33207
   C        2.20269        18.56613        -6.13436
   C        3.05080        19.81907        -6.33433
   C        3.26150        16.24332        -1.92540
   C        4.37110        16.92716        -1.13160
   C        7.33667        15.69546       -11.32718
   C        8.44215        15.49068       -12.12028
   C        8.27791        15.94367       -13.43059
   C        7.03474        16.47893       -13.67501
   S        6.05515        16.44449       -12.23241
   C        6.51157        16.98212       -14.91213
   C        7.36635        17.33210       -15.99089
   C        6.82733        17.82220       -17.23443
   C        5.42411        17.92680       -17.42922
   C        4.62976        17.57211       -16.34923
   C        5.15184        17.13523       -15.13554
   N        8.69706        17.28893       -16.01137
   S        9.21805        17.80644       -17.44109
   N        7.78828        18.11182       -18.10938
   C        4.87034        18.36470       -18.67720
   S        3.18304        18.11325       -19.04107
   C        3.35951        18.86891       -20.59722
   C        4.65442        19.29287       -20.79155
   C        5.50193        18.99942       -19.72175
   C        2.25684        18.97741       -21.48936
   S        2.37365        19.98827       -22.91252
   C        0.75755        19.55969       -23.36966
   C        0.16615        18.66355       -22.47018
   C        1.03815        18.35838       -21.40292
   C        0.05301        20.01811       -24.48007
   C       -1.25350        19.57782       -24.72809
   C       -1.87192        18.62768       -23.85202
   C       -1.15719        18.17015       -22.70984
   S        0.60575        21.15531       -25.66538
   C       -0.92854        21.05628       -26.50083
   C       -1.78801        20.18519       -25.88465
   C       -3.16562        18.14665       -24.11472
   C       -3.71309        17.23002       -23.25535
   C       -2.99925        16.77051       -22.12143
   C       -1.73976        17.23218       -21.84106
   N       -4.92348        16.57632       -23.25931
   C       -4.99879        15.73443       -22.16692
   N       -3.81145        15.86849       -21.47401
   O       -5.92749        15.01672       -21.87305
   C       -6.00407        16.75430       -24.19561
   C       -6.77937        18.04056       -23.92536
   C       -3.48609        15.08960       -20.30630
   C       -2.57769        13.91208       -20.64895
   C       -1.15681        21.83878       -27.66548
   C       -0.29211        22.71460       -28.28254
   C       -0.83697        23.33476       -29.40758
   C       -2.13066        22.95001       -29.67822
   S       -2.68052        21.78379       -28.50167
   C       -2.99113        23.38198       -30.73973
   C       -2.56654        24.32531       -31.71456
   C       -3.45048        24.74692       -32.77358
   C       -4.77056        24.23186       -32.87388
   C       -5.13898        23.31589       -31.90131
   C       -4.28715        22.90877       -30.87909
   N       -1.37869        24.92096       -31.79702
   S       -1.36871        25.90552       -33.06717
   N       -2.86618        25.63117       -33.58029
   C       -5.66691        24.63674       -33.92127
   S       -7.27722        23.96969       -34.02491
   C       -7.61755        24.90454       -35.42171
   C       -6.56432        25.68220       -35.78888
   C       -5.45440        25.53245       -34.93880
   H       13.58071         5.11514        13.70172
   H       13.18698         7.66589        13.94203
   H       11.50800         9.57143         7.30777
   H       11.54917        11.10821         8.86597
   H       12.77599         9.78761        13.51817
   H       10.93363        14.87573        10.17225
   H       10.55098        13.45134         9.17041
   H       13.30929        14.74726         9.49545
   H       12.28495        14.84772         8.05976
   H       12.99083        13.29792         8.53682
   H       12.63113        13.68266        14.57897
   H       13.33922        12.04713        14.62502
   H       10.37229        12.74149        14.95564
   H       11.46029        12.22891        16.24952
   H       11.02423        11.10002        14.95959
   H       12.21755         5.25354         5.32583
   H       11.74533         5.60310         2.78799
   H        9.43089        10.91191         0.51206
   H        9.97659         9.96063         2.67783
   H       10.25322        10.22778        -5.23418
   H       11.10184         8.71980        -3.28886
   H        7.02909        13.18688        -3.27959
   H        5.50069        16.54574        -9.35891
   H        4.33810        17.03852        -7.55318
   H        5.42474        14.69959        -3.28248
   H        1.23736        18.83382        -5.69697
   H        2.03670        18.05723        -7.08857
   H        3.17909        20.33564        -5.38637
   H        2.56002        20.49046        -7.03339
   H        4.03227        19.56005        -6.72521
   H        3.34030        15.15535        -1.83796
   H        2.28420        16.56365        -1.55501
   H        5.34835        16.65223        -1.52205
   H        4.31409        16.63211        -0.08755
   H        4.26247        18.00700        -1.19531
   H        9.34184        15.03388       -11.74715
   H        9.03321        15.88128       -14.19150
   H        3.55686        17.64131       -16.45667
   H        4.46867        16.88564       -14.33655
   H        4.96818        19.78999       -21.69257
   H        6.54848        19.23913       -19.69511
   H        0.80182        17.70010       -20.58646
   H       -2.77599        20.00813       -26.26983
   H       -3.70656        18.48912       -24.98076
   H       -1.19894        16.88269       -20.97776
   H       -6.66152        15.88901       -24.07753
   H       -5.59325        16.75833       -25.20986
   H       -7.21043        18.01142       -22.92778
   H       -7.58229        18.14742       -24.64935
   H       -6.12434        18.90598       -23.99608
   H       -4.43397        14.72518       -19.90201
   H       -3.00825        15.74318       -19.57039
   H       -3.07781        13.24973       -21.35113
   H       -2.34212        13.35192       -19.74838
   H       -1.65090        14.26062       -21.09919
   H        0.70440        22.89235       -27.91791
   H       -0.31566        24.04810       -30.01819
   H       -6.13501        22.89904       -31.93837
   H       -4.65183        22.19076       -30.15872
   H       -8.58008        24.82005       -35.88612
   H       -6.58016        26.34061       -36.63906
   H       -4.52512        26.05740       -35.05742
*
