# ORCA input file
# SCF done       -382.602216069372          0.000949103367
! wb97x-d3 def2-SVP def2/J RIJCOSX Grid4 TightSCF
%maxcore 5000
%tddft
    Mode sTDDFT
    Ethresh 5.0
    maxcore 5000
end

%pal
  nprocs 6
  end
* xyz 0 1
   C       -6.56989        -6.04554         7.76570
   C       -7.50184        -6.81404         7.02607
   C       -8.08179        -6.38209         5.83964
   C       -7.66604        -5.11827         5.36988
   C       -6.73987        -4.34313         6.10754
   C       -6.17071        -4.77912         7.30346
   C       -8.02513        -4.47888         4.16529
   C       -7.42927        -3.25699         3.97824
   S       -6.37153        -2.83843         5.30531
   C       -6.19657        -6.70471         8.97456
   C       -6.79884        -7.89977         9.13371
   S       -7.86106        -8.31793         7.83589
   C       -5.21019        -3.94971         8.00415
   C       -9.07855        -7.15667         5.12994
   C       -7.68071        -2.42065         2.85234
   C       -5.22390        -2.59111         8.15103
   C       -4.10686        -2.09137         8.84866
   C       -3.22316        -3.05561         9.22273
   S       -3.77438        -4.62239         8.72862
   C      -10.23359        -6.71257         4.54836
   C      -10.99681        -7.74235         3.96402
   C      -10.42801        -8.97293         4.08529
   S       -8.92451        -8.88099         4.94345
   S       -8.93938        -2.91702         1.76144
   C       -8.69355        -1.52940         0.72334
   C       -7.67511        -0.75410         1.20652
   C       -7.10223        -1.23897         2.40175
   C       -1.96119        -2.91075        10.00150
   C       -2.15105        -3.36285        11.45120
   C      -10.95583       -10.29169         3.63381
   C      -11.38052       -11.15290         4.82503
   C       -6.01154        -0.51763         3.06718
   O       -5.66041        -0.67614         4.21580
   O       -5.43409         0.35786         2.23884
   C       -4.39642         1.17306         2.77873
   C       -4.96799         2.38427         3.50211
   C       -9.52221        -1.41118        -0.43308
   S      -10.35485        -2.85516        -0.92769
   C      -11.14869        -2.02956        -2.23755
   C      -10.77327        -0.71635        -2.27542
   C       -9.85025        -0.34741        -1.26864
   C       -9.38111         1.04251        -1.16102
   O       -8.57457         1.47379        -0.37100
   O       -9.97122         1.81375        -2.08927
   C       -9.61886         3.19457        -2.09692
   C      -10.41543         3.98118        -1.06529
   C      -13.28271        -4.50124        -3.97766
   C      -13.77979        -3.41411        -4.74064
   C      -14.76036        -3.55357        -5.71225
   C      -15.19275        -4.87251        -5.97376
   C      -14.69240        -5.96356        -5.22177
   C      -13.76448        -5.80780        -4.19342
   C      -16.10629        -5.30258        -6.95592
   C      -16.33269        -6.65756        -6.96143
   S      -15.39378        -7.47500        -5.73373
   C      -12.29786        -4.07797        -3.05394
   C      -12.06139        -2.73608        -3.07206
   S      -13.04244        -1.90586        -4.25803
   C      -13.32959        -6.92880        -3.38577
   C      -15.34557        -2.41855        -6.39472
   C      -17.22379        -7.30413        -7.86526
   C      -13.09820        -8.22034        -3.77032
   C      -12.67992        -9.05341        -2.71373
   C      -12.61039        -8.41766        -1.51240
   S      -13.06518        -6.75460        -1.66991
   C      -16.66539        -2.19283        -6.67040
   C      -16.89955        -0.95524        -7.30104
   C      -15.76527        -0.23683        -7.52262
   S      -14.36993        -1.08312        -6.93782
   S      -18.07084        -6.29646        -9.00273
   C      -18.91076        -7.65976        -9.70901
   C      -18.53968        -8.81645        -9.07740
   C      -17.59960        -8.63345        -8.04153
   C      -12.15178        -8.94156        -0.19484
   C      -10.81562        -8.31298         0.20829
   C      -15.62316         1.11861        -8.12531
   C      -15.20171         2.14889        -7.07592
   C      -17.09266        -9.77352        -7.27152
   O      -16.20366        -9.73036        -6.44840
   O      -17.74088       -10.90004        -7.58153
   C      -17.30708       -12.09433        -6.93453
   C      -16.09058       -12.69003        -7.62918
   C      -19.83678        -7.41442       -10.76601
   S      -20.09972        -5.75123       -11.20598
   C      -21.29612        -6.18229       -12.39327
   C      -21.47036        -7.53833       -12.42679
   C      -20.65299        -8.25182       -11.52203
   C      -20.70120        -9.72376       -11.50146
   O      -19.85775       -10.46684       -11.05855
   O      -21.83083       -10.16295       -12.07732
   C      -21.98602       -11.57492       -12.20018
   C      -21.28535       -12.10164       -13.44482
   C      -22.51741        -3.08530       -14.01418
   C      -23.39704        -3.91925       -14.75023
   C      -24.34394        -3.43126       -15.63880
   C      -24.38160        -2.02896       -15.80121
   C      -23.50435        -1.19103       -15.07108
   C      -22.54979        -1.68707       -14.18551
   C      -25.18600        -1.28236       -16.68484
   C      -24.97443         0.07306       -16.63063
   S      -23.73970         0.49102       -15.46583
   C      -21.71870        -3.83520       -13.11807
   C      -21.94242        -5.17901       -13.16964
   S      -23.17283        -5.60168       -14.34026
   C      -21.62625        -0.80534       -13.50315
   C      -25.26382        -4.29357       -16.35100
   C      -25.69051         1.01514       -17.42436
   C      -21.85292         0.44472       -12.99864
   C      -20.70976         1.02857       -12.41755
   C      -19.59943         0.24515       -12.49234
   S      -19.95431        -1.25172       -13.28713
   C      -26.60159        -4.10931       -16.56253
   C      -27.20036        -5.15684       -17.28973
   C      -26.32645        -6.13738       -17.64565
   S      -24.73031        -5.78785       -17.06742
   S      -26.96150         0.39923       -18.43939
   C      -27.33715         1.98759       -19.06487
   C      -26.50254         2.92067       -18.51595
   C      -25.57720         2.39133       -17.59040
   C      -18.22874         0.50353       -11.96773
   C      -17.82775        -0.54153       -10.92536
   C      -26.59789        -7.40120       -18.38618
   C      -26.50723        -8.61504       -17.45941
   C      -24.62898         3.25983       -16.88480
   O      -23.97939         2.94731       -15.91087
   O      -24.56252         4.47017       -17.44749
   C      -23.72363         5.43108       -16.80934
   C      -24.41890         6.06995       -15.61532
   C      -28.36869         2.11141       -20.04847
   S      -28.80321         0.67958       -20.93354
   C      -29.96927         1.53633       -21.86076
   C      -30.02338         2.84362       -21.51962
   C      -29.11864         3.19621       -20.48063
   C      -29.10474         4.55688       -19.92328
   O      -28.50344         4.92510       -18.94221
   O      -29.88209         5.37636       -20.65207
   C      -29.99714         6.72314       -20.19885
   C      -31.04978         6.85743       -19.10738
   H       -8.68126        -4.91595         3.43380
   H       -5.51531        -6.28931         9.69347
   H       -6.69071        -8.58825         9.94896
   H       -6.02375        -1.96772         7.79593
   H       -3.96172        -1.04646         9.05918
   H      -10.55037        -5.68551         4.57952
   H      -11.93808        -7.57243         3.47160
   H       -7.34858         0.15201         0.73409
   H       -1.65396        -1.86295         9.98058
   H       -1.17178        -3.50948         9.54063
   H       -2.93131        -2.77593        11.93076
   H       -1.22723        -3.23811        12.01073
   H       -2.43858        -4.41140        11.48286
   H      -10.18711       -10.82345         3.06650
   H      -11.81260       -10.12342         2.97733
   H      -10.53104       -11.33170         5.48038
   H      -11.76479       -12.11017         4.48164
   H      -12.15715       -10.64997         5.39692
   H       -3.79866         1.47497         1.91617
   H       -3.78929         0.57181         3.46415
   H       -5.61831         2.94457         2.83457
   H       -4.15817         3.02683         3.83578
   H       -5.54247         2.06188         4.36719
   H      -11.14799        -0.02340        -3.00626
   H       -9.84201         3.53575        -3.11016
   H       -8.54597         3.28986        -1.89824
   H      -11.48161         3.84347        -1.22956
   H      -10.17552         5.03747        -1.14754
   H      -10.16470         3.63897        -0.06419
   H      -16.57070        -4.63849        -7.66327
   H      -11.75609        -4.73675        -2.40070
   H      -13.18941        -8.55942        -4.78574
   H      -12.43714       -10.09323        -2.84419
   H      -17.44944        -2.87170        -6.38641
   H      -17.88036        -0.60891        -7.57445
   H      -18.90943        -9.78488        -9.35400
   H      -12.04642       -10.02639        -0.26405
   H      -12.89852        -8.71763         0.57189
   H      -10.05722        -8.52831        -0.54114
   H      -10.48185        -8.70450         1.16549
   H      -10.91890        -7.23331         0.29384
   H      -16.57917         1.41020        -8.56514
   H      -14.87226         1.09269        -8.91959
   H      -15.94180         2.20226        -6.28068
   H      -15.10492         3.13247        -7.52909
   H      -14.24581         1.86956        -6.63885
   H      -18.16306       -12.76986        -6.99166
   H      -17.07496       -11.86990        -5.88779
   H      -16.30415       -12.84904        -8.68350
   H      -15.83582       -13.64035        -7.16876
   H      -15.24331       -12.01477        -7.53736
   H      -22.16222        -8.02021       -13.09332
   H      -23.06451       -11.73724       -12.25587
   H      -21.58067       -12.05792       -11.30469
   H      -21.65854       -11.59283       -14.33062
   H      -21.46761       -13.16794       -13.54281
   H      -20.21392       -11.93281       -13.36583
   H      -25.88559        -1.72770       -17.36957
   H      -21.00923        -3.40617       -12.43458
   H      -22.81591         0.92109       -13.01167
   H      -20.71381         2.00189       -11.95943
   H      -27.14872        -3.27053       -16.17076
   H      -28.24619        -5.17943       -17.54102
   H      -26.54866         3.96713       -18.74560
   H      -18.20566         1.50217       -11.52559
   H      -17.50871         0.48027       -12.79081
   H      -18.53222        -0.53706       -10.09709
   H      -16.83371        -0.33576       -10.53762
   H      -17.82803        -1.53460       -11.36849
   H      -25.87389        -7.51581       -19.19683
   H      -27.59651        -7.34431       -18.82451
   H      -25.51214        -8.68131       -17.02529
   H      -26.70921        -9.52908       -18.01240
   H      -27.23068        -8.52865       -16.65172
   H      -23.50838         6.17118       -17.58272
   H      -22.79729         4.94093       -16.49123
   H      -25.36779         6.50185       -15.92348
   H      -23.78833         6.85076       -15.19962
   H      -24.60331         5.32016       -14.84999
   H      -30.54079         1.01551       -22.60260
   H      -30.68606         3.55721       -21.97254
   H      -30.27381         7.29668       -21.08614
   H      -29.02310         7.05774       -19.82640
   H      -32.00833         6.48436       -19.46039
   H      -31.15497         7.90215       -18.82923
   H      -30.74932         6.28766       -18.23147
*
