# ORCA input file
# SCF done       -475.821732025145          0.000491065736
! wb97x-d3 def2-SVP def2/J RIJCOSX Grid4 TightSCF
%maxcore 5000
%tddft
    Mode sTDDFT
    Ethresh 5.0
    maxcore 5000
end

%pal
  nprocs 6
  end
* xyz 0 1
   C        1.18279         7.75287        -4.28859
   C       -0.02221         8.41342        -3.98113
   C       -0.22911         8.95548        -2.69008
   C        0.70520         8.85802        -1.66368
   C        1.92536         8.23179        -1.98276
   C        2.13792         7.69764        -3.27689
   C       -1.13980         8.65863        -4.83195
   C       -2.13750         9.32163        -4.21289
   S       -1.79747         9.70176        -2.56200
   C        3.05447         8.05813        -1.14841
   C        4.08382         7.38756        -1.74094
   S        3.70930         6.94891        -3.39657
   C        1.43231         7.13999        -5.57804
   C        0.46638         9.36258        -0.32751
   C        2.60410         7.12350        -6.28215
   C        2.51491         6.41443        -7.49611
   C        1.28605         5.85076        -7.71631
   S        0.20679         6.22065        -6.40814
   C        0.79767         8.76941         0.85993
   C        0.43981         9.54027         1.98233
   C       -0.14580        10.73729         1.66404
   S       -0.28444        10.91042        -0.05795
   S        0.69225         4.92207        -9.07153
   C        2.03626         3.68214        -9.29573
   S       -0.74435        12.00014         2.71220
   C        0.70766        12.26401         3.81823
   C        5.32735         7.06122        -1.13304
   C        6.44040         6.47681        -1.70232
   C        7.47541         6.31657        -0.79190
   C        7.17627         6.76008         0.48967
   S        5.55831         7.39497         0.55501
   C        8.07748         6.70595         1.58254
   S        9.68674         6.11002         1.25602
   C       10.18936         6.29284         2.91883
   C        9.14303         6.79804         3.68252
   C        7.95147         7.03438         2.92791
   C        9.23241         7.06625         5.10774
   C        8.01918         7.60087         5.71235
   C        6.81975         7.81663         4.96200
   C        6.73974         7.56641         3.52798
   C        7.89265         7.93786         7.03831
   S        6.28760         8.48877         7.37518
   C        5.78273         8.28258         5.73321
   C       11.51626         5.91041         3.23901
   C       12.44850         5.47008         2.30762
   C       13.67104         5.11276         2.85722
   S       12.19163         5.88408         4.84151
   O       10.24515         6.84596         5.76782
   O        5.72216         7.80758         2.88166
   C        8.89822         7.85208         8.12842
   C        8.98776         6.42965         8.68870
   C        4.39548         8.63005         5.32970
   C        4.32645        10.04517         4.74891
   C       13.69142         5.26100         4.22995
  Cl        3.83935         6.30945        -8.58800
  Cl        0.70996         8.99260         3.58896
   C        0.81904        13.73535         4.16255
   C        1.43304         2.36646        -9.74379
   C       16.08483         4.59567         8.55763
   C       15.85688         4.68485         7.16775
   C       16.88268         4.34266         6.25015
   C       18.14075         3.90795         6.64581
   C       18.37684         3.83762         8.03392
   C       17.34618         4.15901         8.95199
   C       14.66027         5.03141         6.50203
   C       14.74428         4.97296         5.14007
   S       16.33463         4.47546         4.60138
   C       19.58556         3.50870         8.68921
   C       19.50263         3.53530        10.05150
   S       17.90004         3.99256        10.59731
   C       15.07047         4.94723         9.53014
   C       19.16840         3.52306         5.69945
   C       14.82143         4.34190        10.73237
   C       13.76492         4.93880        11.44618
   C       13.21673         6.02383        10.81550
   S       14.01000         6.30878         9.29930
   C       20.00832         2.44658         5.77534
   C       20.92350         2.38314         4.70691
   C       20.77990         3.39898         3.79899
   S       19.48914         4.46096         4.26900
   S       11.88262         7.04289        11.30676
   C       12.53092         7.70168        12.89926
   S       21.70214         3.73669         2.35404
   C       21.63298         2.10923         1.48905
   C       20.53971         3.20908        10.96728
   C       20.47309         3.13663        12.34460
   C       21.67664         2.74381        12.91151
   C       22.69067         2.52189        11.98887
   S       22.12293         2.81837        10.37125
   C       23.99328         2.07785        12.32949
   S       24.28096         1.66143        14.00185
   C       25.94767         1.23142        13.70221
   C       26.25597         1.41912        12.35904
   C       25.15252         1.89585        11.58445
   C       27.56545         1.17108        11.78158
   C       27.69737         1.53660        10.37653
   C       26.59563         2.02324         9.60385
   C       25.25602         2.16787        10.16063
   C       28.86234         1.45056         9.65401
   S       28.61662         1.99783         8.03151
   C       26.94119         2.32664         8.30955
   C       26.71471         0.79937        14.81292
   C       26.22672         0.70597        16.11042
   C       27.16690         0.28476        17.03930
   S       28.39078         0.33608        14.75542
   O       28.50306         0.70124        12.42245
   O       24.29343         2.49079         9.46823
   C       30.21341         1.02469        10.10359
   C       30.92663         2.16357        10.83919
   C       26.08733         2.83719         7.20646
   C       25.33881         1.69276         6.51752
   C       28.40083         0.04730        16.46651
  Cl       13.21870         4.32570        12.95515
  Cl       22.10838         1.14217         4.58889
   C       21.41140         2.33234         0.00673
   C       11.62955         8.82101        13.37793
   C       33.20736        -1.16881        17.03019
   C       31.86170        -0.89898        17.35550
   C       31.40777        -1.02873        18.69248
   C       32.22769        -1.43598        19.74037
   C       33.57700        -1.69234        19.41706
   C       34.03173        -1.55847        18.08081
   C       30.81505        -0.53197        16.48014
   C       29.60867        -0.35922        17.09541
   S       29.70672        -0.66473        18.81763
   C       34.63054        -2.02794        20.29670
   C       35.84493        -2.15945        19.68683
   S       35.74240        -1.87410        17.96178
   C       33.71992        -1.04156        15.68077
   C       31.71309        -1.59461        21.08468
   C       34.64838        -1.83991        15.06889
   C       34.97996        -1.40935        13.77038
   C       34.30663        -0.28534        13.37275
   S       33.24350         0.26182        14.63023
   C       30.77412        -0.82658        21.71819
   C       30.48624        -1.26494        23.02471
   C       31.17441        -2.39142        23.39171
   S       32.21483        -2.91418        22.10688
   S       34.41961         0.58688        11.86036
   C       33.76780        -0.69329        10.70419
   S       31.16369        -3.26446        24.90487
   C       29.35840        -3.52173        25.17047
   C       37.07011        -2.48543        20.32892
   C       38.34095        -2.53432        19.79194
   C       39.29886        -2.87295        20.73705
   C       38.78478        -3.10241        22.00674
   S       37.05860        -2.89329        22.01636
   C       39.57387        -3.43196        23.13858
   S       41.30622        -3.45393        22.92442
   C       41.59951        -3.88656        24.59174
   C       40.39547        -4.01498        25.27139
   C       39.25131        -3.75723        24.45044
   C       40.28337        -4.38455        26.67453
   C       38.91457        -4.50827        27.16920
   C       37.77277        -4.26258        26.34194
   C       37.89173        -3.83764        24.95381
   C       38.57609        -4.86595        28.45086
   S       36.85631        -4.93354        28.63518
   C       36.58024        -4.46589        26.99306
   C       42.95843        -4.03686        24.98036
   C       44.02905        -3.86179        24.12038
   C       45.27155        -4.06145        24.72412
   S       43.52372        -4.45825        26.57422
   O       41.25770        -4.59420        27.39101
   O       36.90716        -3.56172        24.27162
   C       39.46084        -5.22569        29.58904
   C       39.88733        -6.69396        29.50061
   C       35.19391        -4.30893        26.48250
   C       34.74887        -2.84456        26.53107
   C       45.14829        -4.38774        26.04396
  Cl       36.13409        -2.22863        12.79671
  Cl       29.38572        -0.43151        24.05005
   C       29.11841        -4.92070        25.70118
   C       33.93108        -0.20872         9.27834
   H       -1.18354         8.35946        -5.86232
   H       -3.07803         9.62878        -4.62629
   H        3.12682         8.43806        -0.14633
   H        3.49545         7.64119        -5.98047
   H        1.23236         7.79059         0.94383
   H        2.53947         3.58455        -8.33599
   H        2.73024         4.07230       -10.03860
   H        1.58371        11.91586         3.27421
   H        0.56116        11.65838         4.71154
   H        6.49133         6.18675        -2.73715
   H        8.42961         5.88511        -1.04078
   H       12.22648         5.41672         1.25568
   H       14.51099         4.75298         2.28914
   H        8.62803         8.54282         8.92910
   H        9.87714         8.12623         7.73096
   H        8.01993         6.10187         9.06211
   H        9.70710         6.40624         9.50260
   H        9.32031         5.74707         7.91161
   H        3.73590         8.55820         6.19679
   H        4.06235         7.92636         4.56444
   H        4.68884        10.77522         5.46972
   H        3.29746        10.28320         4.49435
   H        4.93016        10.10365         3.84730
   H        0.94775        14.32867         3.26050
   H        1.67556        13.89613         4.81402
   H       -0.07797        14.07565         4.67427
   H        0.73075         1.99647        -9.00067
   H        2.22106         1.62885        -9.88082
   H        0.90454         2.49144       -10.68579
   H       13.74420         5.29882         6.99466
   H       20.50310         3.27978         8.17944
   H       15.33438         3.46623        11.08386
   H       19.96763         1.70506         6.55165
   H       13.54206         8.05764        12.70391
   H       12.55913         6.88049        13.61334
   H       20.81271         1.55032         1.93436
   H       22.57413         1.59419         1.67690
   H       19.58016         3.35376        12.90426
   H       21.82779         2.61981        13.96995
   H       25.20744         0.94764        16.35812
   H       26.96897         0.15843        18.08933
   H       30.80188         0.71680         9.23703
   H       30.10531         0.18082        10.78773
   H       31.00844         3.04016        10.19989
   H       31.92466         1.85276        11.13476
   H       30.37213         2.42865        11.73516
   H       26.70891         3.36041         6.47712
   H       25.35312         3.53160         7.61970
   H       26.03729         0.95306         6.13143
   H       24.75126         2.08462         5.69222
   H       24.66681         1.21306         7.22407
   H       20.47512         2.85865        -0.16310
   H       21.37431         1.37424        -0.50776
   H       22.22098         2.92352        -0.41458
   H       11.59222         9.62151        12.64260
   H       12.00901         9.22263        14.31508
   H       10.61903         8.45273        13.53916
   H       30.92804        -0.40009        15.42035
   H       34.52173        -2.14984        21.35811
   H       35.07074        -2.72193        15.51287
   H       30.33442         0.05790        21.29665
   H       32.71930        -0.84716        10.95950
   H       34.33052        -1.60820        10.87885
   H       28.87456        -3.37207        24.20759
   H       29.01681        -2.76500        25.87545
   H       38.55526        -2.32407        18.75863
   H       40.35002        -2.95568        20.52070
   H       43.90228        -3.59619        23.08517
   H       46.20991        -3.96730        24.20716
   H       38.93327        -5.05235        30.52901
   H       40.35453        -4.60017        29.55417
   H       39.01640        -7.34602        29.48485
   H       40.50305        -6.95154        30.35778
   H       40.46822        -6.85519        28.59659
   H       34.51364        -4.91724        27.08128
   H       35.15769        -4.64405        25.44426
   H       34.80312        -2.45986        27.54723
   H       33.72486        -2.76549        26.17681
   H       35.38614        -2.24437        25.88771
   H       45.93953        -4.59310        26.73832
   H       29.47820        -5.66376        24.99325
   H       28.05333        -5.07511        25.86133
   H       29.63755        -5.06414        26.64590
   H       33.41742         0.73905         9.13449
   H       33.51618        -0.94264         8.59053
   H       34.98357        -0.06692         9.04495
*
