# ORCA input file
# SCF done       -457.436681182721          0.000549005892
! wb97x-d3 def2-SVP def2/J RIJCOSX Grid4 TightSCF
%maxcore 5000
%tddft
    Mode sTDDFT
    Ethresh 5.0
    maxcore 5000
end

%pal
  nprocs 6
  end
* xyz 0 1
   C       16.30832        -3.58906        -3.93025
   C       17.35525        -2.92637        -4.59608
   C       17.70246        -1.60359        -4.23552
   C       17.05843        -0.89459        -3.22593
   C       15.97818        -1.53927        -2.59432
   C       15.62576        -2.86062        -2.96279
   C       18.16550        -3.40755        -5.66635
   C       19.09022        -2.51260        -6.06843
   S       19.04334        -1.02598        -5.18790
   C       15.11695        -1.02464        -1.59332
   C       14.16032        -1.90685        -1.18610
   S       14.27267        -3.43880        -2.02922
   C       15.98074        -4.96898        -4.23369
   C       17.46976         0.43683        -2.82780
   C       16.84350        -6.01106        -4.42047
   C       16.16441        -7.21630        -4.68552
   C       14.80500        -7.12543        -4.71970
   S       14.32829        -5.49355        -4.39820
   C       17.59724         0.93199        -1.56087
   C       18.02233         2.27454        -1.56043
   C       18.21148         2.82843        -2.79156
   S       17.87046         1.65041        -4.01162
   C       13.80813        -8.20952        -4.94183
   C       13.00175        -8.49004        -3.67292
   C       18.67111         4.20441        -3.12872
   C       20.04364         4.18530        -3.80262
   C       13.14281        -1.70272        -0.21090
   C       12.10109        -2.53997         0.11776
   C       11.26054        -2.02474         1.10598
   C       11.64631        -0.78400         1.55662
   S       13.09398        -0.25117         0.73953
   C       11.10459         0.03627         2.59337
   S       12.22940         0.98998         3.51757
   C       10.97079         1.62661         4.54380
   C        9.73240         1.12727         4.14852
   C        9.80992         0.21951         3.04592
   C        8.47511         1.49385         4.77643
   C        7.29419         0.85542         4.21075
   C        7.36134        -0.02362         3.08314
   C        8.61758        -0.35978         2.41140
   C        6.01374         1.04409         4.67242
   S        4.88822         0.11487         3.74560
   C        6.13213        -0.51333         2.71795
   C       11.37039         2.48509         5.60000
   C       12.69134         2.80782         5.88253
   C       12.84990         3.62426         6.99330
   S       10.29913         3.23789         6.74464
   O        8.40105         2.28527         5.71388
   O        8.66028        -1.04560         1.40207
   C        5.54013         1.86687         5.81549
   C        5.76007         1.14562         7.14861
   C        5.77719        -1.41617         1.59287
   C        5.59576        -0.61888         0.29790
   C        9.15918         6.37553        11.16332
   C       10.23793         5.86918        10.40991
   C       11.57289         6.08510        10.83369
   C       11.89813         6.78459        11.99096
   C       10.82101         7.34063        12.71080
   C        9.48648         7.13374        12.28054
   C       10.18128         5.12214         9.21137
   C       11.40334         4.74144         8.73688
   S       12.70813         5.31812         9.75500
   C       10.87592         8.13388        13.87993
   C        9.65112         8.50104        14.35667
   S        8.34659         7.89104        13.36114
   C        7.79066         6.08184        10.78821
   C       13.26885         6.89185        12.44797
   C        7.28090         4.89493        10.34103
   C        5.90150         4.98157        10.07394
   C        5.33813         6.20303        10.29395
   S        6.54733         7.29903        10.86882
   C       14.40029         7.06746        11.70250
   C       15.56326         7.05948        12.49682
   C       15.36192         6.86328        13.83074
   S       13.66878         6.69475        14.13465
   C        3.91443         6.61082        10.13521
   C        3.27666         6.94069        11.48537
   C       16.36911         6.80308        14.92633
   C       16.18710         7.94065        15.93154
   C       11.64389         3.95299         7.57854
   C        9.39015         9.26350        15.52854
   C        8.18347         9.67647        16.04717
   C        8.30155        10.38718        17.24300
   C        9.60358        10.53393        17.66713
   S       10.70316         9.77084        16.54241
   C       10.16897        11.08017        18.85840
   S       11.73005        10.45730        19.30036
   C       11.79075        11.40913        20.75225
   C       10.65100        12.19042        20.87461
   C        9.72963        12.00920        19.79232
   C       10.43342        13.17314        21.94399
   C        9.18829        13.92292        21.82234
   C        8.27835        13.76114        20.73262
   C        8.51256        12.81728        19.64066
   C        8.76663        14.85077        22.74443
   S        7.24186        15.52286        22.28291
   C        7.17031        14.56343        20.84363
   C       12.95550        11.23499        21.56035
   C       13.15928        11.35002        22.91639
   C       14.44622        10.98602        23.31659
   S       14.40253        10.65643        20.76805
   O       11.21832        13.36556        22.86138
   O        7.76326        12.73243        18.67950
   C        9.45859        15.27304        23.98887
   C        8.65169        16.25233        24.82831
   C        6.02717        14.72169        19.90807
   C        6.37753        15.71017        18.79193
   C       19.76976         8.97547        20.83246
   C       18.70578         9.38244        21.66302
   C       18.87216         9.40972        23.06932
   C       20.04939         9.03364        23.70745
   C       21.09128         8.56971        22.88000
   C       20.92786         8.54958        21.47218
   C       17.40356         9.78304        21.27894
   C       16.60853        10.14757        22.32647
   S       17.43662        10.00010        23.86274
   C       22.35655         8.06942        23.26897
   C       23.15125         7.70729        22.22068
   S       22.36495         7.96627        20.67743
   C       19.65077         9.03107        19.38953
   C       20.18458         9.13535        25.14659
   C       19.07840        10.01682        18.63511
   C       19.15657         9.73996        17.25696
   C       19.76226         8.56264        16.93101
   S       20.27598         7.75987        18.37512
   C       19.24490         8.85851        26.09923
   C       19.71164         9.13403        27.39853
   C       20.98169         9.62365        27.47373
   S       21.64151         9.75156        25.88069
   C       20.03707         8.00423        15.57807
   C       21.52057         8.12105        15.22332
   C       21.74300        10.04553        28.68220
   C       21.87508        11.56808        28.75339
   C       15.25512        10.58387        22.27766
   C       24.46471         7.16318        22.27645
   C       25.28843         6.81236        21.23079
   C       26.51638         6.28807        21.63735
   C       26.65569         6.21991        23.00463
   S       25.23122         6.84392        23.80069
   C       27.75778         5.81284        23.81754
   S       27.90800         6.58046        25.36991
   C       29.36355         5.70998        25.74405
   C       29.70085         4.84625        24.71520
   C       28.78296         4.90063        23.61671
   C       30.81299         3.88756        24.77294
   C       30.91715         3.02531        23.60019
   C       29.99718         3.06981        22.50753
   C       28.85560         3.98339        22.47095
   C       31.91566         2.09701        23.42695
   S       31.74001         1.28419        21.91104
   C       30.31576         2.18314        21.50957
   C       29.98346         5.99672        27.00272
   C       31.30396         6.01795        27.37068
   C       31.49826         6.42133        28.70331
   C       30.33481         6.71158        29.34511
   S       28.96910         6.50668        28.33207
   O       31.58755         3.79839        25.71380
   O       28.02738         3.95883        21.57381
   C       33.02783         1.77734        24.35798
   C       33.99232         0.73337        23.81515
   C       29.60012         1.90239        20.23819
   C       28.47059         0.89339        20.46472
   F       16.81956        -8.37396        -4.89545
   F       18.22164         2.96014        -0.41907
   F        5.19235         3.92633         9.62685
   F       16.79072         7.22835        11.97047
   F       18.95539         8.91734        28.49031
   F       18.65692        10.57857        16.33046
   H       18.03544        -4.37242        -6.12013
   H       19.81596        -2.62177        -6.85043
   H       15.17975        -0.02433        -1.20517
   H       17.91174        -5.94277        -4.33075
   H       17.44198         0.36243        -0.66352
   H       14.34284        -9.11049        -5.24999
   H       13.12597        -7.92117        -5.74571
   H       13.66154        -8.79794        -2.86503
   H       12.28109        -9.28301        -3.85448
   H       12.46721        -7.59523        -3.36179
   H       18.71691         4.78647        -2.20580
   H       17.94816         4.67759        -3.79853
   H       20.78396         3.73890        -3.14280
   H       20.35720         5.19799        -4.04201
   H       20.00364         3.60458        -4.72157
   H       11.95850        -3.49579        -0.35456
   H       10.40009        -2.54228         1.48417
   H       13.51094         2.44169         5.28839
   H       13.80009         3.96774         7.36317
   H        4.47836         2.08671         5.68945
   H        6.10227         2.80259         5.83289
   H        5.23923         0.19043         7.15925
   H        5.38519         1.76039         7.96176
   H        6.82148         0.97352         7.30507
   H        4.85391        -1.94884         1.82945
   H        6.58481        -2.13595         1.44805
   H        4.82869         0.14289         0.42113
   H        5.30213        -1.28536        -0.50831
   H        6.53271        -0.13947         0.02768
   H        9.27163         4.88661         8.69073
   H       11.78669         8.44245        14.35926
   H        7.84167         3.98418        10.24428
   H       14.41571         7.23132        10.64150
   H        3.37328         5.79117         9.65763
   H        3.85484         7.48772         9.48528
   H        3.30680         6.07336        12.14088
   H        2.24003         7.23692        11.34811
   H        3.81344         7.75609        11.96506
   H       17.36293         6.85590        14.47739
   H       16.27878         5.84656        15.44906
   H       16.33835         8.90414        15.45080
   H       16.90596         7.84084        16.74089
   H       15.18423         7.91631        16.35259
   H        7.24543         9.45939        15.56741
   H        7.46372        10.78068        17.78513
   H       12.39841        11.68610        23.59365
   H       14.78687        11.00996        24.33668
   H       10.42290        15.71239        23.71341
   H        9.69717        14.37623        24.56936
   H        8.44745        17.16161        24.26649
   H        9.20318        16.51854        25.72615
   H        7.70190        15.81146        25.12433
   H        5.15298        15.07930        20.45596
   H        5.80208        13.75330        19.45762
   H        6.65390        16.67657        19.20872
   H        5.52344        15.84351        18.13374
   H        7.20879        15.32465        18.20782
   H       17.04865         9.77908        20.26443
   H       22.67574         7.96209        24.28948
   H       18.66094        10.92427        19.02973
   H       18.27456         8.44375        25.90121
   H       19.43905         8.55395        14.84830
   H       19.74372         6.95207        15.55025
   H       21.83067         9.16341        15.22984
   H       21.70026         7.71139        14.23295
   H       22.12462         7.57434        15.94415
   H       22.73948         9.59745        28.66207
   H       21.21580         9.67873        29.56549
   H       22.40186        11.94219        27.87824
   H       22.42937        11.85414        29.64335
   H       20.89224        12.03220        28.79183
   H       24.99934         6.93729        20.20219
   H       27.28000         5.96874        20.95504
   H       32.10387         5.75445        26.70649
   H       32.46610         6.49203        29.16616
   H       30.19459         7.02933        30.35939
   H       32.59546         1.44040        25.30567
   H       33.55904         2.70617        24.58923
   H       33.47306        -0.20236        23.61796
   H       34.78283         0.54339        24.53638
   H       34.44614         1.07589        22.88737
   H       30.30380         1.50812        19.50212
   H       29.16645         2.83165        19.86433
   H       28.86154        -0.03244        20.88183
   H       27.97727         0.67261        19.52217
   H       27.73797         1.31058        21.15028
*
