# ORCA input file
# SCF done       -647.172785659572          0.000600035127
! wb97x-d3 def2-SVP def2/J RIJCOSX Grid4 TightSCF
%maxcore 5000
%tddft
    Mode sTDDFT
    Ethresh 5.0
    maxcore 5000
end

%pal
  nprocs 6
  end
* xyz 0 1
   C       -1.29478        16.12451        13.15832
   C       -2.29705        15.27196        12.66126
   C       -1.95013        14.04690        12.04797
   C       -0.63751        13.60611        11.90426
   C        0.36455        14.46717        12.38919
   C        0.01821        15.70479        12.98433
   C       -3.70872        15.47862        12.66173
   C       -4.39106        14.45591        12.10985
   S       -3.37491        13.17693        11.53890
   C        1.76723        14.28435        12.34445
   C        2.47770        15.31362        12.88684
   S        1.43781        16.58752        13.48724
   C       -1.62916        17.36547        13.83120
   C       -0.33268        12.34365        11.25945
   C       -2.58093        17.57592        14.78746
   C       -2.63424        18.91122        15.23631
   C       -1.73548        19.72503        14.61945
   S       -0.78348        18.84302        13.47030
   C       -0.90656        11.82503        10.13330
   C       -0.37032        10.57843         9.75457
   C        0.60131        10.12647        10.59265
   S        0.87556        11.25279        11.88161
   C       -1.48102        21.17470        14.85094
   C       -0.15923        21.39234        15.59007
   C        1.39082         8.86587        10.50154
   C        2.89503         9.13312        10.44554
   C        3.89619        15.40118        12.97400
   S        4.85489        14.01160        12.56653
   C        6.33275        14.88242        12.87619
   C        6.06246        16.17024        13.27321
   C        4.69495        16.45974        13.33741
   C        7.58508        14.20046        12.68605
   C        7.60742        12.82759        12.57555
   C        8.78389        12.10997        12.32047
   C       10.02135        12.76224        12.19470
   C       10.03776        14.18194        12.36077
   C        8.82709        14.90376        12.55472
   N       11.20832        14.82303        12.39757
   C       11.23501        16.13680        12.50047
   C       10.00927        16.87113        12.42117
   N        8.85758        16.23866        12.52269
   C        9.93212        18.29119        12.18649
   C       12.53523        16.71730        12.74000
   C       10.76983        19.11468        11.48276
   C       10.29905        20.43697        11.40540
   C        9.10534        20.62614        12.03761
   S        8.52668        19.15198        12.73308
   C        8.33874        21.89315        12.20009
   C        8.41251        22.40402        13.64057
   S       12.76176        18.18395        13.64599
   C       14.48512        18.03728        13.53577
   C       14.84074        16.92026        12.84059
   C       13.74058        16.16097        12.40425
   C       15.36465        19.08892        14.11836
   C       15.29084        20.38277        13.30446
   C       12.42216         9.97217        11.46036
   S       13.92654        10.85389        11.36166
   C       13.96790         8.31711        10.95250
   C       12.63670         8.63430        11.22087
   C       14.80988         9.40788        10.98891
   C       11.19138        12.02878        11.94209
   C       11.19463        10.66201        11.75062
   C        9.93864         9.96994        11.83859
   C        8.76668        10.68802        12.20403
   N        9.81042         8.67961        11.51909
   C        8.66272         8.05284        11.68557
   C        7.59721         8.71423        12.37903
   N        7.65760        10.02292        12.52033
   C        6.48435         8.08522        13.03621
   C        8.56167         6.74419        11.09507
   S       10.02259         5.87080        10.74107
   C        9.12741         4.57467        10.02568
   C        7.78795         4.83243        10.04502
   C        7.46212         6.05875        10.65049
   C        9.83185         3.39184         9.45685
   C       10.61172         3.76373         8.19412
   C        6.29178         6.79734        13.46425
   C        5.12410         6.64680        14.23087
   C        4.42795         7.80955        14.39811
   S        5.20929         9.12872        13.59835
   C        3.15939         8.01364        15.15276
   C        1.97499         8.25517        14.21649
   C       19.38944         7.84262         9.74952
   C       18.35425         8.68944        10.18979
   C       18.63866        10.02013        10.58007
   C       19.92056        10.56302        10.57020
   C       20.96220         9.70401        10.16161
   C       20.67152         8.37307         9.77159
   C       16.98153         8.37510        10.32382
   C       16.21575         9.41930        10.75670
   S       17.17632        10.85763        11.03543
   C       22.35174         9.97272        10.09642
   C       23.09799         8.91923         9.65712
   S       22.11278         7.51585         9.29986
   C       19.11142         6.49808         9.28413
   C       20.15976        11.93186        10.98131
   C       18.11109         6.08480         8.45069
   C       18.13498         4.69891         8.19487
   C       19.14220         4.04793         8.83716
   S       20.10091         5.15089         9.76957
   C       19.56200        12.61557        12.00309
   C       20.02925        13.93713        12.14238
   C       20.97078        14.28013        11.22227
   S       21.30261        12.95619        10.15522
   C       19.49916         2.60234         8.78422
   C       20.78157         2.37927         7.98031
   C       21.72341        15.55875        11.08916
   C       23.20107        15.36968        11.43849
   C       24.50847         8.84559         9.48948
   S       25.52711        10.23551         9.71688
   C       26.95574         9.29829         9.36799
   C       26.62392         7.99419         9.08476
   C       25.25336         7.74006         9.14902
   C       28.25702         9.91009         9.38770
   C       28.40939        11.27794         9.31588
   C       29.67054        11.89755         9.30906
   C       30.85127        11.13276         9.36120
   C       30.71994         9.71244         9.42824
   C       29.43843         9.10424         9.49807
   N       31.80952         8.94705         9.35297
   C       31.71245         7.63665         9.45799
   C       30.45454         7.06207         9.83054
   N       29.36316         7.79840         9.76358
   C       30.26710         5.72896        10.34070
   C       32.90934         6.90910         9.13066
   C       31.12989         4.88358        10.98654
   C       30.51304         3.69481        11.41382
   C       29.18547         3.62941        11.10494
   S       28.66276         5.05994        10.28545
   C       28.23337         2.51342        11.36488
   C       27.81759         1.82136        10.06530
   S       34.40313         7.80064         9.12770
   C       35.27632         6.41533         8.57043
   C       34.44463         5.34948         8.38366
   C       33.10187         5.62481         8.69521
   C       36.75346         6.47115         8.38465
   C       37.47960         6.53673         9.73000
   C       33.56784        13.72722         9.26065
   S       33.72703        15.43769         9.49409
   C       35.86737        14.01637         9.22977
   C       34.80120        13.12408         9.13276
   C       35.46286        15.31425         9.45060
   C       32.12046        11.73245         9.32956
   C       32.27821        13.09883         9.25418
   C       31.09803        13.90483         9.19037
   C       29.80928        13.31556         9.19307
   N       31.22122        15.23326         9.14845
   C       30.15460        15.99830         9.03462
   C       28.86913        15.38684         8.86487
   N       28.73168        14.08261         9.00666
   C       27.67629        16.08298         8.44980
   C       30.37563        17.42259         9.09183
   S       31.87213        18.06652         8.48895
   C       31.39940        19.67448         8.90197
   C       30.17263        19.68798         9.50647
   C       29.58801        18.41634         9.61218
   C       32.26165        20.85148         8.58796
   C       33.58883        20.47079         7.94666
   C       27.52319        17.20662         7.68009
   C       26.18225        17.47413         7.36193
   C       25.30787        16.56237         7.88153
   S       26.13974        15.33552         8.76984
   C       23.82187        16.54618         7.74935
   C       23.18790        17.80920         8.33440
   C       36.98823        19.96146        10.55879
   C       37.01223        18.60834        10.16008
   C       38.24894        17.98044         9.87153
   C       39.47603        18.62579         9.94895
   C       39.44645        19.98902        10.29976
   C       38.21256        20.62169        10.58628
   C       35.92304        17.71763         9.99338
   C       36.29367        16.45128         9.64443
   S       38.03031        16.29905         9.47161
   C       40.53996        20.88157        10.41022
   C       40.18502        22.14323        10.78506
   S       38.45416        22.29673        11.01440
   C       35.75644        20.60388        10.96959
   C       40.72657        17.94154         9.68546
   C       34.74324        20.07918        11.72319
   C       33.70761        20.99717        11.98626
   C       33.91733        22.22221        11.43098
   S       35.42099        22.26468        10.56864
   C       41.90170        18.01597        10.37803
   C       42.92145        17.20996         9.83303
   C       42.53571        16.52766         8.72122
   S       40.88115        16.85990         8.32955
   C       33.07725        23.44944        11.53400
   C       33.69595        24.45544        12.50699
   C       43.32144        15.55881         7.90655
   C       42.87118        14.12156         8.17672
   C       41.04122        23.26182        10.99070
   S       42.76749        23.05904        11.02713
   C       43.00763        24.76554        11.29368
   C       41.80114        25.42140        11.34885
   C       40.69788        24.57874        11.18736
   C       44.34088        25.28717        11.43985
   C       45.39688        24.45184        11.73041
   C       46.71204        24.92193        11.88140
   C       47.01059        26.28930        11.76182
   C       45.93139        27.17977        11.47748
   C       44.61551        26.68412        11.26775
   N       46.14918        28.49524        11.47390
   C       45.17589        29.33110        11.17134
   C       43.93404        28.80735        10.68726
   N       43.67629        27.52111        10.82073
   C       42.92699        29.56929         9.99495
   C       45.47377        30.71788        11.41288
   C       43.02238        30.71797         9.25524
   C       41.80509        31.08482         8.65516
   C       40.78358        30.22161         8.92549
   S       41.31752        28.91468         9.92481
   C       39.35955        30.31801         8.49844
   C       38.44874        30.66826         9.67705
   S       47.15244        31.14704        11.56460
   C       46.74020        32.78526        11.93476
   C       45.38688        32.96281        11.95761
   C       44.66385        31.79315        11.66665
   C       47.80445        33.80493        12.15263
   C       48.54965        34.11638        10.85321
   C       50.70346        26.46970        12.42694
   S       51.01144        28.16178        12.11732
   C       52.95638        26.71189        12.93328
   C       51.84774        25.84963        12.85715
   C       52.65796        27.98577        12.56458
   C       48.31871        26.76344        11.95785
   C       49.38055        25.93059        12.23325
   C       49.12144        24.52131        12.31016
   C       47.78647        24.03938        12.20527
   N       50.11270        23.63089        12.39875
   C       49.85363        22.34549        12.52908
   C       48.50293        21.92129        12.74790
   N       47.52352        22.76442        12.49007
   C       48.09021        20.65674        13.29357
   C       50.97808        21.45764        12.38427
   S       52.57514        22.09350        12.64353
   C       53.29508        20.57935        12.21746
   C       52.34561        19.66274        11.87190
   C       51.03192        20.15456        11.96564
   C       54.77595        20.41834        12.21667
   C       55.41273        21.16855        11.04477
   C       48.75810        19.72990        14.04981
   C       47.93042        18.67816        14.47896
   C       46.63625        18.79930        14.06232
   S       46.40956        20.23949        13.13029
   C       45.49787        17.87296        14.32044
   C       44.87423        17.37343        13.01796
   H       -4.17481        16.36792        13.04438
   H       -5.45182        14.36140        11.98284
   H        2.25097        13.42777        11.91240
   H       -3.19629        16.78907        15.18663
   H       -3.31938        19.25447        15.99162
   H       -1.66276        12.33888         9.56782
   H       -0.69540        10.03719         8.88349
   H       -2.30471        21.58740        15.43750
   H       -1.44557        21.69973        13.89304
   H       -0.17766        20.88794        16.55354
   H        0.01166        22.45332        15.75491
   H        0.66667        20.99141        15.00699
   H        1.07576         8.32648         9.60528
   H        1.17144         8.23574        11.36790
   H        3.14202         9.73072         9.57097
   H        3.44238         8.19503        10.39091
   H        3.22134         9.67161        11.33241
   H        6.83763        16.87604        13.50542
   H        4.29274        17.41367        13.63060
   H        6.69435        12.25892        12.67449
   H       11.67753        18.77730        11.01475
   H       10.82640        21.22345        10.89445
   H        7.29224        21.72592        11.93419
   H        8.74956        22.64361        11.52134
   H        7.99655        21.66547        14.32168
   H        7.85023        23.32884        13.74238
   H        9.44599        22.59119        13.92304
   H       15.86326        16.64407        12.65271
   H       13.81597        15.24380        11.84978
   H       16.39235        18.72023        14.13357
   H       15.05858        19.29641        15.14661
   H       15.60849        20.20346        12.27970
   H       15.93553        21.14130        13.74130
   H       14.27007        20.75824        13.28969
   H       14.30903         7.31879        10.74700
   H       11.84003         7.91552        11.23564
   H       12.11717        12.58228        11.88527
   H        7.05288         4.15908         9.64007
   H        6.45817         6.43350        10.73829
   H        9.09416         2.62164         9.22196
   H       10.52604         2.98721        10.19779
   H        9.93887         4.15884         7.43643
   H       11.11531         2.88887         7.79058
   H       11.35714         4.52175         8.42309
   H        6.97675         5.99408        13.26059
   H        4.81477         5.70848        14.65727
   H        3.26652         8.87394        15.81744
   H        2.97004         7.12885        15.76463
   H        2.13957         9.15326        13.62647
   H        1.06039         8.38190        14.79008
   H        1.85032         7.40783        13.54569
   H       16.58158         7.39993        10.11939
   H       22.80441        10.90553        10.37818
   H       17.40545         6.76038         8.00045
   H       17.42597         4.20336         7.55486
   H       18.83847        12.17463        12.66440
   H       19.67829        14.60941        12.90555
   H       18.67468         2.05257         8.32502
   H       19.64248         2.22128         9.79853
   H       20.65585         2.73813         6.96127
   H       21.02973         1.32118         7.94946
   H       21.60815         2.91935         8.43628
   H       21.27675        16.29855        11.75728
   H       21.64015        15.93035        10.06511
   H       23.30354        15.00101        12.45660
   H       23.73572        16.31263        11.35691
   H       23.66350        14.65186        10.76465
   H       27.35798         7.25070         8.84003
   H       24.80736         6.77943         8.95985
   H       27.54050        11.91639         9.24823
   H       32.16409         5.11584        11.16665
   H       31.03573         2.91313        11.93683
   H       27.34111         2.90219        11.86184
   H       28.70999         1.79181        12.03176
   H       27.33363         2.53278         9.40040
   H       27.12340         1.01146        10.27470
   H       28.68851         1.41113         9.55905
   H       34.78450         4.39236         8.02842
   H       32.30611         4.91051         8.58366
   H       37.01598         7.35270         7.79504
   H       37.07397         5.58322         7.83565
   H       37.17311         7.42423        10.27848
   H       38.55508         6.57517         9.57664
   H       37.24459         5.66058        10.33009
   H       36.90273        13.73258         9.15425
   H       34.92651        12.06969         8.96446
   H       32.97399        11.07603         9.38272
   H       29.70010        20.58914         9.85638
   H       28.62976        18.23359        10.06503
   H       32.44764        21.40442         9.51319
   H       31.70987        21.52003         7.91852
   H       34.15629        19.81692         8.60417
   H       34.18250        21.36084         7.75351
   H       33.42423        19.95016         7.00603
   H       28.34595        17.80430         7.33200
   H       25.87644        18.31077         6.75877
   H       23.42701        15.66358         8.25422
   H       23.55733        16.47352         6.69006
   H       23.42852        17.90159         9.39059
   H       22.10663        17.77320         8.22492
   H       23.55557        18.69410         7.82144
   H       34.89064        17.99149        10.11351
   H       41.55750        20.61104        10.19429
   H       34.75971        19.07967        12.11871
   H       32.83562        20.75309        12.56757
   H       42.01948        18.59837        11.27447
   H       43.90975        17.14122        10.25095
   H       32.07952        23.16871        11.87950
   H       32.98267        23.91757        10.55076
   H       33.78244        24.01762        13.49881
   H       33.07880        25.34817        12.57218
   H       34.68922        24.74082        12.16835
   H       44.37977        15.66702         8.15367
   H       43.19243        15.78011         6.84430
   H       43.00516        13.87524         9.22776
   H       43.45132        13.42378         7.57782
   H       41.81899        14.00588         7.92703
   H       41.72721        26.48117        11.50259
   H       39.67505        24.91204        11.20513
   H       45.23047        23.39205        11.85813
   H       43.93784        31.26752         9.12964
   H       41.69008        31.95949         8.03911
   H       39.03936        29.36417         8.07228
   H       39.27432        31.08503         7.72569
   H       38.52022        29.90268        10.44601
   H       37.41505        30.73683         9.34767
   H       38.74012        31.62250        10.11020
   H       44.91973        33.90624        12.18030
   H       43.58991        31.74178        11.66392
   H       48.51894        33.43548        12.89220
   H       47.34629        34.71595        12.54351
   H       49.01985        33.21543        10.46655
   H       49.31887        34.86409        11.02914
   H       47.85991        34.49655        10.10302
   H       53.93474        26.39696        13.25031
   H       51.88285        24.80602        13.10432
   H       53.30517        28.83984        12.52900
   H       48.47134        27.83028        11.88256
   H       52.58058        18.65917        11.56299
   H       50.15991        19.57764        11.71515
   H       55.01598        19.35517        12.14770
   H       55.18760        20.80364        13.15266
   H       55.02935        20.78966        10.10011
   H       56.49242        21.04265        11.05814
   H       55.18351        22.22964        11.10968
   H       49.79944        19.80910        14.30504
   H       48.28207        17.85814        15.08045
   H       44.73217        18.39271        14.90351
   H       45.85822        17.02862        14.91205
   H       44.51079        18.21722        12.43644
   H       44.04128        16.70606        13.22476
   H       45.61371        16.83554        12.42822
*
