# ORCA input file
# SCF done       -527.616016191886          0.000495490885
! wb97x-d3 def2-SVP def2/J RIJCOSX Grid4 TightSCF
%maxcore 5000
%tddft
    Mode sTDDFT
    Ethresh 5.0
    maxcore 5000
end

%pal
  nprocs 6
  end
* xyz 0 1
   C        2.04256         1.50732         0.66513
   C        2.97801         0.49100         0.57804
   C        2.41050        -0.76200         0.74279
   C        1.03399        -0.73395         0.93948
   S        0.44703         0.90115         0.96389
   C        0.21421        -1.88939         1.01109
   S        0.96387        -3.46366         1.10099
   C       -0.56081        -4.29611         0.89296
   C       -1.60228        -3.38482         0.76481
   C       -1.15872        -2.02815         0.86953
   C       -3.00117        -3.75024         0.53332
   C       -3.86425        -2.61066         0.25103
   C       -3.37133        -1.27443         0.28042
   C       -2.06971        -0.90363         0.78937
   C       -5.17994        -2.51097        -0.15441
   S       -6.28286         1.76686        -2.94399
   C       -4.77696         1.33703        -3.40050
   C       -0.51839        -5.71384         0.81277
   C        0.57165        -6.49517         1.16386
   C        0.40996        -7.84665         0.87887
   S       -1.77621        -6.69370         0.12206
   O       -3.40126        -4.90783         0.51500
   O       -1.79709         0.23575         1.15202
   C       -6.25801        -3.52058        -0.31895
   C       -5.89844        -4.62384        -1.31509
   C       -3.84776         2.28399        -4.10052
   C       -4.30460         3.73394        -4.08094
   C        2.24725         2.90486         0.53203
   C        1.32237         3.89820         0.68332
   C        1.83885         5.20242         0.50687
   C        3.21296         5.17920         0.19589
   S        3.82343         3.55625         0.11585
   S        0.95249         6.62583         0.68195
   C        5.88321         7.63886         0.79087
   C        4.07623         6.30675         0.04287
   C        5.84680         8.55066        -0.21541
   C        4.78260         8.36511        -1.13234
   C        3.94921         7.23300        -0.98555
   C        5.07215         6.58234         1.04411
   C        4.48121         9.05094        -2.33573
   C        3.45024         8.47415        -3.06417
   S        2.80758         7.05596        -2.29867
   S        5.12912        10.41671        -3.17039
   C        3.99999        10.19436        -4.45460
   C        3.16826         9.13473        -4.27421
   C        6.81389         9.62614        -0.34956
   C        5.17791         5.86280         2.29028
   C        6.57731        10.96916        -0.43886
   C        7.76226        11.74056        -0.50830
   C        8.90586        11.00092        -0.46182
   S        8.52020         9.31957        -0.32837
   C        6.26435         5.88258         3.13068
   C        4.84487         4.55086         4.40582
   S        3.90140         4.93350         3.01073
   C        4.31530         3.67187         5.48481
   C        3.86887         2.31796         4.93198
   C       10.31199        11.48350        -0.55273
   C       10.93937        11.11236        -1.89752
   C       -0.79126        -8.11193         0.25566
   C        6.07656         5.12919         4.31067
   F        7.02493         4.99622         5.25066
   F        7.75528        13.07876        -0.60236
   F        5.35375        11.51127        -0.41037
   F        7.40431         6.52504         2.85116
   C       -9.92741       -14.53725         0.35991
   C      -10.25912       -15.73880         0.94006
   C      -11.36270       -15.66134         1.79921
   C      -11.87983       -14.39303         1.90802
   S      -11.00214       -13.28081         0.88911
   C      -12.85407       -13.80925         2.77803
   S      -12.51267       -12.17828         3.26375
   C      -13.94129       -12.08262         4.24897
   C      -14.66225       -13.26523         4.17627
   C      -14.03538       -14.25095         3.34733
   C      -15.91022       -13.52382         4.90191
   C      -16.51220       -14.82593         4.60960
   C      -15.91309       -15.78720         3.73203
   C      -14.62311       -15.56789         3.07743
   C      -17.71690       -15.24587         5.11649
   S      -18.11500       -16.82649         4.53566
   C      -16.66119       -16.93091         3.60336
   C      -14.09991       -10.84469         4.94471
   C      -15.18757       -10.15143         5.42360
   C      -14.86204        -8.89273         5.94102
   S      -12.63744        -9.91472         5.16926
   O      -16.41041       -12.72495         5.67900
   O      -14.08595       -16.40095         2.36364
   C      -18.62272       -14.56236         6.07561
   C      -18.16940       -14.81179         7.51717
   C      -16.40352       -18.13197         2.76726
   C      -16.88654       -17.90492         1.33173
   C       -8.85863       -14.18099        -0.51410
   C       -8.78964       -13.03090        -1.26100
   C       -7.56288       -12.90129        -1.91648
   C       -6.66908       -13.95539        -1.65633
   S       -7.39144       -15.14055        -0.62926
   S       -6.91603       -11.64976        -2.94275
   C       -5.45823       -12.55529        -3.02206
   C       -5.45213       -13.72157        -2.30446
   C       -4.00530       -12.57637        -3.40436
   C       -3.10750       -12.07718        -2.29288
   C       -3.03613       -13.29082        -1.66561
   C       -3.98840       -14.01603        -2.58729
   C       -2.44839       -11.06288        -1.59806
   C       -1.82190       -11.58465        -0.45326
   S       -2.10732       -13.29241        -0.21519
   S       -2.23466        -9.36225        -1.71351
   C       -1.28194        -9.36165        -0.24008
   C       -1.13811       -10.61680         0.29575
   C       -3.55750       -12.52505        -4.78895
   C       -3.63001       -15.25754        -3.26005
   C       -2.40962       -11.99481        -5.30581
   C       -2.24038       -12.27431        -6.68541
   C       -3.23798       -13.02615        -7.22740
   S       -4.42241       -13.39391        -6.01910
   C       -2.40878       -15.61715        -3.75928
   C       -3.66748       -17.42644        -4.51108
   S       -4.82306       -16.43904        -3.68475
   C       -4.05662       -18.69252        -5.19208
   C       -4.83973       -18.41403        -6.47656
   C       -3.35585       -13.53504        -8.62200
   C       -3.41104       -15.06251        -8.65064
   C      -13.51785        -8.60153         5.88350
   C       -2.43539       -16.84544        -4.46131
   F       -1.34651       -17.38532        -5.02856
   F       -1.18972       -11.83429        -7.39138
   F       -1.53642       -11.27184        -4.59987
   F       -1.30252       -14.87840        -3.60791
   C       -8.07914         1.16385         2.44786
   C       -8.31496         2.36771         1.82847
   C       -7.27712         2.76222         0.97800
   C       -6.25265         1.84965         0.91006
   S       -6.56317         0.48245         1.93688
   C       -5.04709         1.95855         0.15353
   S       -4.33616         3.51902        -0.13982
   C       -2.95790         2.81724        -0.95010
   C       -3.10635         1.44932        -1.05272
   C       -4.26467         0.95920        -0.37464
   C       -2.24796         0.55209        -1.85468
   C       -3.02512        -0.38282        -2.69370
   C       -4.29531        -0.03515        -3.27582
   C       -4.39891        -0.46401        -0.14289
   C       -2.68731        -1.69384        -2.89226
   S       -3.94230        -2.53733        -3.73275
   C       -4.91962        -1.10843        -3.85015
   C       -1.93267         3.67428        -1.44535
   C       -1.96668         5.05117        -1.47049
   C       -0.80653         5.62564        -2.00646
   S       -0.41699         3.08648        -2.07707
   O       -1.03160         0.56816        -1.83431
   O       -5.48506        -1.21847        -0.39967
   C       -1.44624        -2.41038        -2.49701
   C       -0.55918        -2.66909        -3.71721
   C       -6.23563        -1.16472        -4.54462
   C       -7.34203        -1.61821        -3.58903
   C       -8.89380         0.49954         3.41766
   C      -10.25997         0.54729         3.54397
   C      -10.71065        -0.21380         4.63111
   C       -9.67122        -0.82002         5.35588
   S       -8.13585        -0.47909         4.66102
   S      -12.30359        -0.58021         5.24888
   C      -11.55535        -1.51067         6.49218
   C      -10.18882        -1.53696         6.43472
   C      -11.70352        -2.44914         7.66307
   C      -11.55685        -3.91846         7.30967
   C      -10.18790        -3.89252         7.32838
   C      -10.03529        -2.43309         7.64195
   C      -12.06370        -5.17026         6.94928
   C      -11.00441        -6.05957         6.69224
   S       -9.41832        -5.36286         6.88500
   S      -13.58999        -5.94715         6.74214
   C      -12.79395        -7.44265         6.28238
   C      -11.42365        -7.33442         6.31020
   C      -12.38753        -2.05573         8.88430
   C       -9.34066        -1.96521         8.82989
   C      -12.79104        -2.84829         9.92415
   C      -13.23222        -2.10842        11.04745
   C      -13.14388        -0.75750        10.89252
   S      -12.52089        -0.38132         9.32216
   C       -8.86507        -0.71281         9.10603
   C       -8.63694        -1.67254        11.21821
   S       -9.30797        -2.94778        10.26092
   C       -8.40428        -1.83319        12.67991
   C       -9.73301        -1.85320        13.43969
   C      -13.54818         0.30391        11.85597
   C      -14.83003         1.00553        11.40310
   C        0.10809         4.68870        -2.37973
   C       -8.45949        -0.55844        10.45382
   F       -7.95577         0.58758        10.93482
   F      -13.67416        -2.69007        12.17259
   F      -12.78336        -4.18612         9.89136
   F       -8.78564         0.27136         8.20315
   H        4.02458         0.66559         0.39863
   H        2.96253        -1.68486         0.69501
   H        1.45547        -6.07892         1.61560
   H        1.15064        -8.59864         1.08287
   H       -7.16095        -2.99425        -0.63411
   H       -6.44721        -3.98239         0.65407
   H       -5.67130        -4.20800        -2.29318
   H       -6.73311        -5.31256        -1.41231
   H       -5.03235        -5.17592        -0.96216
   H       -3.78107         1.93664        -5.13992
   H       -2.83969         2.18863        -3.68632
   H       -5.25955         3.83737        -4.59022
   H       -3.57016         4.36239        -4.57783
   H       -4.42693         4.08356        -3.05906
   H        0.29545         3.71268         0.94201
   H        4.02166        10.87765        -5.28027
   H        2.39921         8.83854        -4.96272
   H        3.46360         4.16030         5.96646
   H        5.09911         3.53559         6.23284
   H        3.07723         2.45150         4.19754
   H        3.49455         1.69174         5.73722
   H        4.70227         1.80863         4.45365
   H       10.90087        11.04216         0.25428
   H       10.31263        12.56825        -0.43016
   H       10.94390        10.03246        -2.02558
   H       11.96268        11.47462        -1.94338
   H       10.37579        11.55763        -2.71386
   H       -9.71286       -16.64519         0.74736
   H      -11.76298       -16.49966         2.33706
   H      -16.18560       -10.54536         5.39532
   H      -15.58478        -8.20851         6.34926
   H      -19.64173       -14.93100         5.94135
   H      -18.59709       -13.48842         5.88240
   H      -18.14074       -15.87841         7.73076
   H      -18.85764       -14.33413         8.20899
   H      -17.17839       -14.39257         7.66903
   H      -16.92065       -18.99251         3.19638
   H      -15.32978       -18.32580         2.74918
   H      -17.94844       -17.66767         1.31759
   H      -16.71976       -18.80046         0.73955
   H      -16.33428       -17.08412         0.88189
   H       -9.59005       -12.31622        -1.31800
   H       -0.59940       -10.81741         1.20314
   H       -4.67144       -19.29207        -4.51755
   H       -3.14920       -19.25233        -5.42641
   H       -5.73502       -17.83796        -6.25424
   H       -5.13295       -19.35034        -6.94312
   H       -4.22809       -17.85326        -7.17908
   H       -2.49486       -13.17788        -9.19023
   H       -4.26263       -13.13377        -9.08247
   H       -2.51851       -15.48314        -8.19285
   H       -3.47419       -15.41536        -9.67640
   H       -4.28394       -15.41424        -8.10440
   H       -9.19566         2.95568         2.01187
   H       -7.27209         3.67739         0.41348
   H       -2.80864         5.61665        -1.11178
   H       -0.64934         6.68459        -2.09824
   H       -1.70275        -3.36460        -2.02821
   H       -0.89653        -1.79422        -1.78368
   H       -1.09210        -3.26335        -4.45658
   H        0.33567        -3.20739        -3.41640
   H       -0.26240        -1.72561        -4.16868
   H       -6.17499        -1.85750        -5.38679
   H       -6.48249        -0.17187        -4.92713
   H       -7.15226        -2.63040        -3.24175
   H       -8.30177        -1.59898        -4.09845
   H       -7.38833        -0.95122        -2.73182
   H      -10.90056         1.08448         2.86987
   H      -10.76271        -8.14484         6.06268
   H       -7.78971        -1.00072        13.02773
   H       -7.86753        -2.76569        12.86606
   H      -10.27606        -0.92450        13.27913
   H       -9.55211        -1.96991        14.50446
   H      -10.35112        -2.68063        13.09880
   H      -12.74661         1.04094        11.94333
   H      -13.70415        -0.15933        12.83236
   H      -14.68190         1.47010        10.43105
   H      -15.10592         1.77426        12.11951
   H      -15.64655         0.29160        11.32735
   H        1.07462         4.84950        -2.81462
*
