# ORCA input file
# SCF done       -280.027086510033          0.000393336730
! wb97x-d3 def2-SVP def2/J RIJCOSX Grid4 TightSCF
%maxcore 5000
%tddft
    Mode sTDDFT
    Ethresh 5.0
    maxcore 5000
end

%pal
  nprocs 6
  end
* xyz 0 1
   C        6.30450        -7.57138        20.07238
   C        7.04930        -8.71261        20.29736
   C        7.99479        -8.53473        21.31139
   C        7.98872        -7.28672        21.86097
   S        6.80237        -6.28627        21.13832
   C        5.27115        -7.47368        19.09653
   C        4.38997        -6.45090        18.75812
   C        3.50274        -6.80887        17.71973
   C        3.68015        -8.08086        17.25132
   S        4.97579        -8.87493        18.10204
   C        4.33661        -5.13088        19.38709
   O        3.32580        -4.39723        18.90895
   O        5.09454        -4.73046        20.24500
   C        3.17428        -3.08167        19.44297
   C        4.11766        -2.09315        18.77287
   C        0.12220        -9.26534        13.61615
   C       -0.63956        -8.11991        13.46510
   C       -1.78093        -8.32826        12.70082
   S       -0.59497       -10.59587        12.75954
   C        1.27055        -9.35333        14.45285
   C        2.15197       -10.38078        14.76496
   C        3.07450       -10.03035        15.77293
   C        2.93874        -8.75004        16.23601
   S        1.63357        -7.94173        15.41808
   C        2.24306       -11.73211        14.18062
   O        1.65928       -11.82092        12.98108
   O        2.83118       -12.64047        14.71378
   C        1.70099       -13.09196        12.32716
   C        0.61420       -14.02563        12.83731
   C       -5.25985       -10.58700        10.46427
   C       -4.45481       -11.71526        10.51741
   C       -3.22696       -11.46581        11.10978
   C       -3.04665       -10.15857        11.53005
   S       -4.44178        -9.20085        11.12757
   C       -6.61112       -10.59890        10.02970
   C       -7.58119        -9.60008         9.96960
   C       -8.85388       -10.08710         9.60804
   C       -8.88648       -11.43277         9.36713
   S       -7.30528       -12.13438         9.57278
   C       -7.34282        -8.18188        10.23119
   O       -8.45822        -7.45666        10.11217
   O       -6.26746        -7.69981        10.52065
   C       -8.33384        -6.04822        10.31950
   C       -7.81218        -5.34485         9.07487
   C       -1.94515        -9.62588        12.24827
   C      -13.79048       -13.15843         9.10024
   C      -14.73297       -14.08880         8.72926
   C      -16.01102       -13.78066         9.20803
   S      -14.53001       -11.88089        10.03577
   C      -12.38022       -13.08680         8.90674
   C      -11.42090       -14.03395         8.56261
   C      -10.10325       -13.53940         8.67991
   C      -10.03010       -12.23192         9.07774
   S      -11.62244       -11.57453         9.31843
   C      -11.66545       -15.42128         8.12647
   O      -10.56257       -16.16430         8.27896
   O      -12.70062       -15.85300         7.67865
   C      -10.63702       -17.52519         7.85265
   C      -10.39026       -17.65335         6.35627
   C      -18.47116       -10.40043        12.08921
   C      -19.17085       -11.54982        11.77524
   C      -18.44809       -12.43095        10.97021
   C      -17.17294       -12.00023        10.65394
   S      -16.90655       -10.42483        11.33973
   C      -18.90360        -9.38856        12.99285
   C      -18.32447        -8.19935        13.42090
   C      -19.05125        -7.57750        14.45558
   C      -20.18554        -8.24840        14.82595
   S      -20.37490        -9.69692        13.88219
   C      -17.10306        -7.52663        12.93887
   O      -16.75617        -7.89451        11.69992
   O      -16.51540        -6.69139        13.58056
   C      -15.58719        -7.29192        11.14041
   C      -14.31222        -7.97040        11.61953
   C      -16.09919       -12.61894         9.95395
   C      -22.60393        -5.83870        18.78565
   C      -21.78038        -4.78299        19.11452
   C      -22.26635        -4.04269        20.20024
   C      -23.44046        -4.50773        20.70989
   S      -23.98543        -5.88162        19.84383
   C      -22.33116        -6.76957        17.73597
   C      -22.92226        -7.95541        17.32115
   C      -22.22334        -8.58137        16.26610
   C      -21.11643        -7.89803        15.84486
   S      -20.90829        -6.44418        16.77637
   C      -24.12669        -8.63331        17.83445
   O      -24.95618        -7.81162        18.48645
   O      -24.35369        -9.80264        17.64321
   C      -26.14157        -8.38572        19.03999
   C      -25.86018        -9.07633        20.36608
   F        8.82934        -9.51068        21.70238
   F       -2.65994        -7.35232        12.43856
   F       -2.29520       -12.41955        11.28262
   F      -17.06231       -14.55958         8.94454
   F      -18.95709       -13.60245        10.58098
   F      -21.62449        -2.97214        20.68883
   H        6.91768        -9.63363        19.75926
   H        8.61666        -6.91937        22.64722
   H        2.75395        -6.13978        17.33685
   H        3.36177        -3.11185        20.52134
   H        2.13068        -2.82283        19.25224
   H        5.14936        -2.35867        18.99005
   H        3.92457        -1.09378        19.15176
   H        3.96831        -2.10065        17.69573
   H       -0.38728        -7.17068        13.90153
   H        3.81520       -10.72072        16.13522
   H        2.68981       -13.53334        12.48978
   H        1.55860       -12.86550        11.26921
   H        0.74989       -14.20851        13.90033
   H        0.67633       -14.97180        12.30781
   H       -0.36591       -13.58823        12.66965
   H       -4.75633       -12.68228        10.15749
   H       -9.72040        -9.45554         9.53588
   H       -7.65971        -5.87124        11.16368
   H       -9.34283        -5.71407        10.56923
   H       -6.79945        -5.67566         8.85842
   H       -7.80237        -4.27184         9.24212
   H       -8.44880        -5.56651         8.22144
   H      -14.51588       -14.95836         8.13766
   H       -9.23541       -14.13939         8.47506
   H      -11.62374       -17.92442         8.10892
   H       -9.86495       -18.04174         8.42637
   H      -11.17550       -17.14174         5.80507
   H      -10.39123       -18.70272         6.07643
   H       -9.43015       -17.21572         6.09332
   H      -20.16587       -11.75959        12.12411
   H      -18.72954        -6.65574        14.90669
   H      -15.57793        -6.23179        11.41449
   H      -15.70856        -7.39994        10.06112
   H      -14.21911        -7.86584        12.69744
   H      -13.45538        -7.50034        11.14592
   H      -14.32441        -9.02680        11.36328
   H      -20.86289        -4.55187        18.60504
   H      -24.00207        -4.11576        21.53304
   H      -22.54666        -9.51536        15.84221
   H      -26.55423        -9.09971        18.31995
   H      -26.82425        -7.54405        19.16900
   H      -25.18096        -9.91132        20.21330
   H      -26.78961        -9.45193        20.78373
   H      -25.41076        -8.37562        21.06534
*
