130
 SCF done       -241.443965009244          0.000767859208
C           7.53238559076696    5.83773085384643   -2.53060402521394
O           6.46884604926715    5.48488153552060   -3.01228329523874
C           8.82246459067967    5.93748379923707   -3.24327387215500
C           9.10002884839052    5.64835750590102   -4.56404315245702
C          10.40602141979742    5.81556514564639   -4.99669479668157
C          11.39339719984101    6.26091180671550   -4.11850740796693
C          11.11239892245897    6.55312609169281   -2.79115415691935
C           9.80935534765901    6.38866019035534   -2.35024655444231
C           9.19490274156921    6.60136468489690   -1.03685326747009
C           9.85108546516915    7.06650010872402    0.07409442276927
C           9.26801823519535    7.29205450136273    1.33866947390990
N           8.87193753963506    7.50516671639609    2.39557877963430
C          11.22293633832936    7.39453365225039    0.10110734439047
N          12.33131691253212    7.68001697167029    0.18868546367175
C           7.79966215544157    6.24194892626833   -1.15318744087749
F          10.72229009813766    5.54529308261972   -6.26937959706641
F          12.64659657324383    6.41097462929250   -4.56209016068033
C          -9.55128400061737   -2.79037178844975   -6.34301024196589
O          -8.61632420939553   -2.15534058952183   -5.88147325922966
C         -10.37613702268613   -3.77919499317629   -5.62931487320412
C         -10.27960237654942   -4.20616263381842   -4.31984821811414
C         -11.18491212495984   -5.15932816143007   -3.87403251759078
C         -12.15495883619126   -5.66055628790170   -4.72922345666779
C         -12.25407696347673   -5.23287430793790   -6.04778818815789
C         -11.35537777257407   -4.28259107004568   -6.50462035171425
C         -11.19619021499652   -3.64078988939714   -7.81136960473178
C         -11.97686544130869   -3.88244209034137   -8.91208228667862
C         -11.83422221895656   -3.26650489827701  -10.17298510861583
N         -11.78625638803922   -2.81423540952907  -11.22798491364378
C         -13.05039140543501   -4.79779111914557   -8.93628743877495
N         -13.93462751178303   -5.52404620716151   -9.02891254403160
C         -10.07861239097442   -2.72646610873119   -7.70751572421065
C           6.86757015989684    6.24332186750640   -0.13819984385494
C           5.52153019754766    5.88765888104254   -0.16676335771279
C           4.70670815112322    5.90749108431992    0.97090525589501
C           3.37143879433091    5.49152122397120    0.77553842108768
C           3.12828910034495    5.13778990585887   -0.56426164137712
S           4.56148099352285    5.33998096048394   -1.53046369555303
C           1.95875633570266    4.64228631006068   -1.17596533937202
S           1.88499576537339    4.60144938272440   -2.93398428013437
C           0.33960372105618    3.87188643107329   -2.85792731406491
C          -0.08786523863831    3.64748663576917   -1.55181471966456
C           0.81296665371700    4.10097948428512   -0.60127777388580
C          -0.64732957261276    3.44497329571334   -3.79553812312585
C          -1.72158944467388    2.91198787114161   -3.04440019907504
C          -1.43560263968028    2.97931473570082   -1.55415713539787
C          -0.66668025003547    3.49894747912951   -5.18830440285268
C          -1.78132821796534    3.00883787254584   -5.82846697827195
C          -2.82866021443928    2.42246144298855   -5.07535756942052
C          -2.81600943603806    2.37971260925505   -3.68267550288603
C          -2.07484193401880    2.93576811439042   -7.31903553735328
C          -3.37879013159332    2.17825523672780   -7.31454415964641
C          -3.77978068068557    1.91671782801219   -6.00960292647772
C          -4.29294283969735    1.73341838846339   -8.25942332943821
C          -5.37885812298888    1.08891812128878   -7.67990743808898
S          -5.26430835645097    1.06849493197871   -5.92597071833067
C          -6.47658213690735    0.44132551102712   -8.28853323509513
S          -7.43782665665860   -0.65257678411086   -7.33632336261163
C          -8.48992822721947   -1.05066316230575   -8.68133025013955
C          -8.07440208099858   -0.32665587908033   -9.80165718116638
C          -6.95029254695325    0.50848833687903   -9.60887452947638
C          -9.56963655810540   -1.93614940583818   -8.70947226811502
C          -1.36202025986556    1.53251200792342   -1.01608800706432
C          -0.89580006341313    1.40106202916720    0.42757031911660
C          -2.48949443996960    3.81105306304855   -0.80520118180198
C          -2.67021606041202    5.20209457179600   -1.40167207045339
C          -2.35330495548159    4.32986288869179   -7.92420142497215
C          -1.16623033318650    5.28200462168577   -7.97135427013389
C          -0.93922326708782    2.16565313054642   -8.01929527506113
C          -1.13339291088110    1.93883904119932   -9.51259157159640
S           5.04858213390808    6.36980147541675    2.59715081784343
C           3.39767873788835    6.03293238026725    3.04705799966336
C           2.64678538720047    5.58834817362907    1.99245302534683
F           1.35531548294056    5.28876243032898    2.11211989050941
C           2.97443609578697    6.24501737366206    4.43605416455494
O           4.01401495623339    6.67359580176978    5.16149467451540
O           1.86438072987988    6.05090373097678    4.85955602290702
C           3.77434591526474    6.95390150534632    6.54046094677336
C           3.20031474825839    8.35021912826580    6.73016251014126
C          -6.65155286868984    1.20966447112449  -10.80676990084435
C          -7.49289999236750    0.91253172211826  -11.84425682468055
S          -8.71375806488982   -0.25321661799611  -11.40363760537498
F          -5.65858191554615    2.08960469479618  -10.92201218635240
C          -7.47402264470475    1.45215944407846  -13.20834659441107
O          -6.64431527320774    2.20871879035867  -13.64309861835271
O          -8.52494191735457    0.98350365371244  -13.89176930101733
C          -8.64607985020013    1.38428760252003  -15.25603875948984
C          -7.82164590932963    0.48826962677497  -16.16855921275489
H           8.33306003996649    5.30331049716706   -5.23879321774274
H          11.91264576179765    6.89320976836070   -2.15485073060407
H          -9.51629095558087   -3.80132116700285   -3.67331823674821
H         -11.13476829788125   -5.51360056440331   -2.85551393869901
H         -12.85178509031118   -6.40115076832867   -4.36647647987120
H         -13.01881179175366   -5.64198271595926   -6.68717131823658
H           7.20284933740634    6.54553123227355    0.84706509873913
H           0.66119437623386    4.03982581869509    0.45784427414281
H           0.17848916164202    3.90500629926075   -5.72123012624147
H          -3.64139467304687    1.93944327281309   -3.14459717222018
H          -4.18327841944029    1.85240043058929   -9.31867045797535
H         -10.04443088428831   -1.98868430992200   -9.68243588151077
H          -2.35467068724059    1.08917522381853   -1.11522626051866
H          -0.68243319414097    0.96822019276208   -1.66020974050636
H          -1.54206218254888    1.95040449692914    1.10606139143044
H          -0.91597758463411    0.35299888494270    0.71773538835347
H           0.12211291548329    1.76246032138738    0.54219957931976
H          -3.44074751293265    3.27639369014140   -0.83312526308608
H          -2.18403744786779    3.91044263080576    0.23662487581538
H          -2.99953641212929    5.14121160874568   -2.43669429114218
H          -3.41543058370520    5.75491168169414   -0.83511572409258
H          -1.73603845864770    5.75819320036077   -1.37007930126160
H          -2.73972472955018    4.18382722868169   -8.93392361110453
H          -3.15095131963406    4.78979882294502   -7.33459283396026
H          -0.34055005754512    4.86165490238965   -8.53866871466119
H          -1.47069975504898    6.20676862627017   -8.45661402212735
H          -0.82079214335972    5.52650529303741   -6.97078902860597
H          -0.00763977020257    2.70880552897682   -7.85604713372724
H          -0.84210836713289    1.19694010429080   -7.52155652239003
H          -1.23432066791801    2.87843837094079  -10.04807154263451
H          -0.26858502711780    1.41368192061000   -9.91225365043305
H          -2.01247120831965    1.33088973794022   -9.70415642888046
H           3.08501575518053    6.20197387817456    6.93873513919013
H           4.75073732398061    6.85924595278226    7.01925641389701
H           2.22272075585329    8.41840369961594    6.25879175486884
H           3.09424043384618    8.55790912118736    7.79084218383710
H           3.86124617368789    9.09103273814239    6.28659953151975
H          -9.71145318794443    1.30336211141193  -15.47979076278050
H          -8.31986463749404    2.42555748840224  -15.34841447502276
H          -8.11365215211193   -0.55084439819494  -16.03672265674334
H          -7.98418223490078    0.77516385210560  -17.20327624772307
H          -6.76434579800330    0.59229519626074  -15.93636732173682
