138
 SCF done       -233.649197658249          0.000615723486
C           7.57254946675734    2.65481049455786   -1.25758633272887
O           7.32957749006091    3.81882308178105   -1.01502960020673
C           8.92633946439537    2.05611768261089   -1.27455654122228
C          10.13430894794657    2.68466867479580   -1.04611037668117
C          11.28331824037330    1.91516625563282   -1.12487430518676
C          11.20669624162405    0.55513066388174   -1.42604637120609
C           9.99227631419287   -0.07524820794673   -1.65225741939132
C           8.83750922169183    0.68829191310945   -1.57362048938598
C           7.42721526936919    0.33852090471681   -1.74565193597508
C           6.96327892646929   -0.93459860529018   -1.95370208031575
C           5.61259610936327   -1.33413534115671   -2.04937280741671
N           4.55010644301398   -1.76387682700611   -2.12958947806860
C           7.79637606634181   -2.06797707442786   -2.07554690997562
N           8.41045293065045   -3.03120463522549   -2.18694164671995
C           6.64799467480246    1.55628066067883   -1.59984299895725
C           5.29303550551665    1.61471590642168   -1.81921799712508
C           4.36531153921594    2.65975436347719   -1.69960130317338
C           4.47099870748009    3.97522057218691   -1.26331750085701
C           3.25081360443453    4.62744728242648   -1.28448506611051
C           2.17188963740293    3.83373507359444   -1.73815197206865
S           2.69685978364869    2.25301828890630   -2.14479671951570
C           0.96762612402782    4.52868906303846   -1.73739779595062
C          -0.47871314384248    4.24308354461069   -2.03816656009249
C          -0.75154398241901    3.93803618885444   -3.49926898750256
C          -1.92864176931131    3.29767384644209   -3.86530225223278
C          -2.20460309504843    3.04588468590482   -5.19536370887094
C          -1.31654722350838    3.42608740251356   -6.19354204194055
C          -1.63713337142683    3.18516913074003   -7.64016070923262
C          -2.41583048567069    4.36852627191751   -8.21858389221584
C          -0.14805578454336    4.07699409684916   -5.82267351768456
C           0.13153753991188    4.33452966271562   -4.49317687234322
C          -0.90792285733888    3.10158123427432   -1.13256851309522
C          -1.54434096899115    3.32111855424055    0.07778538923129
C          -1.86789337396820    2.25915333853470    0.90717333835707
C          -1.55134639552031    0.95566112250928    0.55593987675968
C          -1.87649976447466   -0.24008204543298    1.41191162533961
C          -2.50440489328169    0.07029900357683    2.76433926576346
C          -0.89797591645210    0.74566756203809   -0.65639190159662
C          -0.57910974042980    1.79787732330763   -1.48859641575706
C          -1.11006864356533    5.58076919808791   -1.69395251414185
C          -0.13278645550892    6.50406272105606   -1.25020006682263
C           1.12501962296318    5.82692402043604   -1.27593555159259
S           2.74957370529321    6.23924427147456   -0.85008161790407
C          -0.46352679684055    7.80295011236791   -0.87154876574463
C          -1.78910381792542    8.15969689728630   -0.94405604244719
C          -2.42600802586310    9.48313535904549   -0.55995945256538
C          -2.07770509930595    9.80157727913181    0.88104290579222
C          -0.91521056303717   10.50059688312286    1.17872045255649
C          -0.57389657632936   10.76544027978093    2.49132404946886
C          -1.37786622537976   10.33510082635038    3.53867447960481
C          -1.03801060928577   10.67321384673529    4.96128730276674
C          -1.72086135494932   11.97884444660180    5.37408259575085
C          -2.53224969892697    9.62605285239201    3.23532453971594
C          -2.87687849614671    9.35609676856554    1.92422632813622
C          -2.07694787875907   10.63143698424324   -1.49237006411574
C          -2.45732270783559   11.92095292170726   -1.13892968348292
C          -2.21362959362390   12.98005016144298   -1.99060179304219
C          -1.58952098819015   12.78141207369585   -3.21625888744596
C          -1.28742490336287   13.94200346324865   -4.11971930776189
C           0.06632343029326   14.55934168304740   -3.76293344056178
C          -1.21573350038968   11.49104313384923   -3.56400073548089
C          -1.46172055487355   10.42406822701763   -2.71774776568729
C          -3.88118588027246    9.16937962027062   -0.77826617731732
C          -4.03416934409637    7.89027429777239   -1.28638987758026
C          -2.76780868283887    7.23482914542765   -1.38325730636645
C          -2.43513513367831    5.94017953416987   -1.77350277198740
S          -5.67752927467451    7.44669858414589   -1.60692505981753
C          -6.18508334982474    9.01394921104275   -1.03201099834830
C          -5.10157367557725    9.82426612760142   -0.62922588607280
S          -5.62295538196036   11.35034198368571   -0.03025453009622
C          -7.30113823044750   10.90408942840598   -0.31926066851807
C          -7.41321729792846    9.62200335583385   -0.86401631662478
C          -8.43322619166032   11.68609291576284   -0.04311778241019
C          -8.54047051636351   12.93191833005238    0.51883470965695
C          -9.77936441135741   13.63862301524047    0.78624049337545
C         -11.05384927532071   13.23047920384732    0.49101144206953
C         -12.21426352155754   13.97876166826433    0.78347243198991
N         -13.20052208438717   14.52872179560362    0.99015511278784
C         -11.41130393918244   12.02300346122129   -0.14509914933841
N         -11.79167687859433   11.06753897641324   -0.65743678512934
C          -9.43054579537607   14.90159626672892    1.43822541698905
C         -10.21468655867879   15.93711689784061    1.92184321503735
C          -9.58527316067572   17.02940825919503    2.50560292503785
C          -8.20390640111671   17.10105597591504    2.61076227058606
C          -7.40847370919124   16.07033284835061    2.13038486738589
C          -8.03153602438805   14.98283450155364    1.55070976372271
C          -7.42356339661090   13.76954049836809    0.97693285038761
O          -6.23230919769008   13.52593274055879    0.90436930405524
F          12.47786122482445    2.48093746547470   -0.91180543538577
F          12.33248021734945   -0.16422055356783   -1.50061601695321
H          10.18586145659138    3.73665553978329   -0.81489762890214
H           9.99089006860321   -1.12770393684094   -1.88235050197683
H           4.83454493564937    0.69095944162234   -2.15210311642803
H           5.40097979904488    4.41258209835818   -0.95069551099557
H          -2.62524881185360    2.97984033915647   -3.10318050558135
H          -3.12190341938309    2.54084066865581   -5.46223280491593
H          -0.71368572196589    3.05061167113764   -8.20678746796518
H          -2.23534086014702    2.27748474461090   -7.74054528441694
H          -1.83064900213613    5.28202318210854   -8.13873898305758
H          -2.64832515686961    4.19504280617776   -9.26656260183423
H          -3.34696888474635    4.51108817680249   -7.67470250049224
H           0.55584344929639    4.38438955795427   -6.58289996673222
H           1.04716493081239    4.84530681444368   -4.23170267079107
H          -1.79465064674498    4.32676370868640    0.38359212682000
H          -2.36952760013175    2.46858445363822    1.83846552802137
H          -2.55212527239698   -0.88901810573845    0.84567768888858
H          -0.95328780949279   -0.80602889052561    1.56816953797693
H          -3.46197406154903    0.57181658663252    2.64399560326448
H          -2.67421439413925   -0.85512274127112    3.31014282393002
H          -1.84830965263328    0.70049208128808    3.36062168193545
H          -0.63348626199248   -0.26034070673499   -0.94867275912623
H          -0.07604276056150    1.60876776230149   -2.42592184085023
H           0.29483394292286    8.49072610990869   -0.53082160435191
H          -0.28095094312499   10.85230672738783    0.37779330877284
H           0.33157879497533   11.31528590715233    2.70529781417472
H          -1.36899039148757    9.86953036283248    5.62239774898552
H           0.04298222800982   10.78189517847352    5.06931771778152
H          -2.80067652170457   11.88668506256838    5.28072833706024
H          -1.48015734150217   12.22511156105304    6.40564895246451
H          -1.39198870045964   12.79541413663532    4.73518044101552
H          -3.16997839760401    9.27803390818174    4.03542077460035
H          -3.77683620695515    8.79625610717991    1.71456672088895
H          -2.94573959938240   12.09562380141771   -0.19152509674291
H          -2.52013414177532   13.97465138171722   -1.70115551676143
H          -1.26801324697997   13.60791637595441   -5.15899142285042
H          -2.06600373235983   14.70072210125305   -4.01857835350566
H           0.85846054896190   13.82167439970072   -3.87061355375364
H           0.28460163781356   15.40138235714234   -4.41556611257561
H           0.06243440888087   14.90934169433975   -2.73311568665642
H          -0.73178406820749   11.31315283502748   -4.51392325074278
H          -1.17198698364689    9.42751831775372   -3.01811748310751
H          -3.19477578009365    5.25067030076573   -2.10742248331419
H          -8.36067419889982    9.17668022910751   -1.10922544141522
H          -9.35910692844547   11.19398204343777   -0.31577927448377
H         -11.28979496170529   15.91124470712005    1.85639781250971
H         -10.18970822695116   17.83922541296536    2.88561300281857
H          -7.74656513421604   17.96432032810048    3.07021327417278
H          -6.33215425884254   16.10239232026417    2.20189504763381
