104
 SCF done       -176.651954909134          0.000682014505
C           2.89053909603191    1.05965916504270   -0.06595244966164
C           2.85599454054707   -0.34710679383891   -0.21731918021260
C           1.65638775363146   -1.01790564707994   -0.25881271469033
C           0.49438720386829   -0.25809817897246   -0.14750866965083
C           0.52881705838967    1.15026070381894   -0.01182334131571
C           1.72833372411577    1.82100861620108    0.03041588739335
C          -0.88225471635816   -0.64017083240513   -0.12768898161120
C          -1.70220466391205    0.47012526274207    0.00796140497456
C          -0.87303496200592    1.72156520937583    0.08261559879834
C           4.26815660803874    1.43641302703463   -0.02738043887653
C           5.08867122226326    0.32574033395231   -0.15553442780171
C           4.25846742443419   -0.91869702019889   -0.30277874874744
S          -1.76829091363931   -2.10442138490553   -0.20270592172286
C          -3.27538885861143   -1.21307625731222   -0.04538191094743
C          -3.05389648407747    0.15019566283959    0.05181941421502
S           5.15564188218431    2.88887535167728    0.16645253051448
C           6.66451875871425    1.99099831631239    0.07931924788672
C           6.44213511572310    0.63605041944047   -0.09896327626589
C          -1.09254795044792    2.46584319369036    1.41251023594282
C          -1.17362218314525    2.66823646028412   -1.09469971874783
C          -0.99348222536466    2.00323807141951   -2.45388795154354
C          -0.82262918453178    1.59441106291813    2.63310582376478
C           4.50287752869210   -1.60328338617864   -1.66087815873934
C           4.53442490733135   -1.91790740147332    0.83564261345651
C           4.26688374868646   -0.67532001790901   -2.84629285143553
C           4.32083597896524   -1.31613931652134    2.21923678406448
C           7.91427258517522    2.66794719399639    0.21262535132916
C          -4.52209572978646   -1.90761174640003   -0.01244004750937
C           7.99566962167162    4.04015706319248    0.43239841741250
C           9.19518930850171    4.72093461978984    0.59367907125790
C          10.43095951800824    4.08453987841139    0.54553700746271
C          10.39665676367826    2.68268023248828    0.30649632507852
C           9.15547303382517    1.97419413785927    0.14311421612481
C          -4.59968597468549   -3.29544487148511   -0.08631340325069
C          -5.79466452431763   -4.00030865839954   -0.03188223226701
C          -7.02989678760828   -3.37459807452849    0.09870588670255
C          -7.00010894619054   -1.95377544974967    0.16199511528197
C          -5.76314296830407   -1.22098767331523    0.11014802528601
N          11.44879468088742    1.87399793435104    0.21211237949426
S          10.93650608691139    0.37641477870037   -0.05612097200279
N           9.35486235150249    0.67359370398945   -0.06480058535084
N          -8.05251497869340   -1.14812420449025    0.27705915684360
S          -7.54540572947783    0.37458930837295    0.31530369163345
N          -5.96592815420796    0.09319133577955    0.18958612811646
C          11.70255433961646    4.70747919317221    0.71951245120053
C          -8.29544352575664   -4.02859694366114    0.17859599335726
C          12.01630332314109    5.99302607368125    1.00095523041516
S          10.96098223794073    7.36879444368416    1.25083542717536
C          12.34848860381182    8.46073410484824    1.55899834816055
N          13.50556627691807    7.74913649472123    1.44816532036105
C          13.41951693835097    6.39870077108416    1.15065438038869
O          12.23885459252383    9.62538304334200    1.80979643627981
C          14.79063032478296    8.38683748924469    1.68504213552917
C          15.10724211034084    8.44835005650079    3.17334043932927
O          14.38482714200281    5.68181317368990    1.03114848415203
C          -8.59807536186232   -5.34720747056036    0.19053581390159
S          -7.53030303699247   -6.73434345220792    0.10935786062023
C          -8.90174117700120   -7.88052595601518    0.22803465184849
N         -10.06385339970594   -7.17396128739931    0.31788194217200
C          -9.99357872780508   -5.79022910575276    0.29935950066004
O          -8.77949797214886   -9.07064974164355    0.23260561060470
C         -11.34156919255692   -7.86341162351847    0.39455480649465
C         -11.81287121238670   -8.30363759670737   -0.98501835512972
O         -10.96441831863565   -5.07464999673580    0.37547129422916
H           1.60084190961674   -2.09062960214876   -0.36638526405554
H           1.78401278333510    2.89352464379925    0.13975269604263
H          -3.86322865731634    0.84884158462517    0.15373262705412
H           7.25224839927259   -0.06504447192802   -0.17419942192343
H          -0.43458873818399    3.33674292645357    1.43621747500205
H          -2.12412658847598    2.82236883504077    1.44258136015685
H          -2.20162770658060    3.02336439722167   -0.99839931889854
H          -0.51025202943761    3.53243320735757   -1.02316791266854
H          -1.67271952091541    1.16102995605923   -2.56423281925572
H          -1.20085296574673    2.71639287586612   -3.24808215773800
H           0.02544956830433    1.64135702952620   -2.57372055372789
H           0.20187795578058    1.22848897518493    2.62603032240684
H          -0.97624369774720    2.16941065240088    3.54307887954657
H          -1.49337597825541    0.73847561582639    2.65166736485298
H           5.53236479166390   -1.96634182687481   -1.68420815955111
H           3.83906203524992   -2.46662607884778   -1.73864835302666
H           3.87634620309552   -2.77984989900141    0.70945964467543
H           5.56556869729212   -2.26588869027320    0.74699953647173
H           4.94302997531184    0.17578675161125   -2.81037401789062
H           4.43848795314788   -1.20956187814382   -3.77766786385827
H           3.24472678997169   -0.30285422159956   -2.84652764243625
H           4.99311095544632   -0.47692448665034    2.38256385985032
H           3.29763426920334   -0.96426157809481    2.33230628818686
H           4.51423438719778   -2.06357489507557    2.98487865638125
H           7.07498483334374    4.60305486544861    0.48655001917878
H           9.15933695145324    5.78507646451162    0.76405932020177
H          -3.67950301054695   -3.85293200539791   -0.18537153277958
H          -5.75501071742347   -5.07596040879532   -0.09323798044526
H          12.55415884833048    4.04260847603303    0.62072304012962
H          -9.14979850157025   -3.36400783345059    0.25214008553460
H          15.53528630189586    7.78616335554442    1.15761147086594
H          14.74786863742731    9.39251963111806    1.26059237777031
H          15.14324553244517    7.44516328950584    3.59290445500993
H          16.07240317550197    8.92419032780629    3.32120713579874
H          14.34845097590169    9.02659701489177    3.69612947265905
H         -11.21611229712297   -8.72907670574183    1.04925888432513
H         -12.04708130985793   -7.15601065376421    0.83651656977494
H         -11.09639697396502   -8.99402247952798   -1.42428650922994
H         -12.77291782301629   -8.80436867266082   -0.89947748460464
H         -11.92442994498251   -7.44138028620738   -1.63866665211740
