107
 SCF done       -209.648828343520          0.000512061406
C           4.74000619220839   -8.05251313862442    6.13095093854100
O           4.95095093506232   -7.19302096853205    6.96695815299090
C           5.19722858167496   -9.45694963752720    6.19100572190687
C           5.93415433639742  -10.07767679981650    7.17936171565201
C           6.23916041034017  -11.41835180294374    7.00595767971797
C           5.81049654694024  -12.10277012041925    5.86872854357333
C           5.07040520828475  -11.47722188334563    4.87573089380871
C           4.76095363691757  -10.13661076742486    5.04145300930963
C           4.01167705930108   -9.20277998124466    4.19753236498122
C           3.45569935124634   -9.51406899393630    2.98323595841709
C           2.74455390150685   -8.62692026992003    2.14828642395722
N           2.15787524725237   -7.97228054262324    1.40837241071066
C           3.52587368590600  -10.79021477525200    2.38466030246044
N           3.54341054686134  -11.80185724399920    1.84278170650311
C           3.99274224739348   -7.92538217090247    4.87875627948228
F           6.11810331243601  -13.39695449492715    5.72720476578806
C           3.36633566722151   -6.78476040894368    4.43078041738174
F           6.95122111544979  -12.06252021169780    7.93840006016964
C           6.99177454182272   12.63342593741652   15.19802227152000
O           7.25768267494342   11.54603120648226   15.66931657933044
C           7.50916847561610   13.92462500618022   15.70360485581622
C           8.39210262368197   14.13589932943264   16.74386610975478
C           8.74722966514469   15.44412875936861   17.02864040339734
C           8.22305072645843   16.49970689919479   16.28226244704254
C           7.33222557799504   16.28587963819526   15.24088292108026
C           6.97113541724643   14.97911092129495   14.95084067173117
C           6.07119180192497   14.41983553861449   13.94145621666349
C           5.30087035241359   15.16906219530669   13.08986844826754
C           4.36946419436777   14.68333306286539   12.14676601171010
N           3.58162775775469   14.39197771358320   11.36285533735517
C           5.31040217521851   16.58042525884115   13.05241464320938
N           5.26869074315755   17.72391273197293   12.96245819134656
C           6.12630017131583   12.97250802079833   14.05280909274860
F           8.58748537373818   17.75351181735179   16.57417669033119
C           5.50035806625312   12.12586961088586   13.16709575532079
F           9.60275130146271   15.69780035881229   18.02666979521575
C           5.44241484540876   10.72943274139800   13.08367202261132
S           4.55932068441742   10.07853966323958   11.69319877784458
C           4.90651630159248    8.49126149769745   12.20455683504470
C           5.64762294197444    8.45122703710675   13.40124943192679
C           5.95387892881152    9.70470495987293   13.88430335905038
C           4.70333872328564    7.17590117135257   11.74364030491064
C           5.31246543615730    6.28690646759023   12.63494853056218
C           5.92764145345897    7.02253977047019   13.80240506354104
S           3.97064632965364    6.38424718969309   10.40896685601037
C           4.49695193401629    4.83825530992156   11.03866690970879
C           5.19169813353910    4.96614772547900   12.23654541991482
C           4.20976706364340    3.65063872865242   10.29749917905532
C           4.62913571968889    2.36865923557356   10.63795867011243
C           4.36252075758384    1.23761695123971    9.85988403267855
C           3.64745746228225    1.25365689291774    8.66515153536622
C           3.17376238557156    2.54552033747380    8.29255263874461
C           3.45740391133223    3.70660146262305    9.09212489988950
N           2.45447105535529    2.86135632116428    7.21776244170958
S           2.16516380607556    4.44252917228396    7.20983075811410
N           2.93746204207446    4.81123058547065    8.56838994852123
C           3.42038072652217    0.09358344890474    7.86290023640705
S           4.08913103778079   -1.46793373594196    8.29141424078666
C           3.41067530025662   -2.15089868349714    6.87738596804905
C           2.68130051945007   -1.22569535594828    6.12069743682725
C           2.70132428635763    0.04311592021669    6.67353448098852
C           3.40440661034678   -3.39951412829251    6.22481859176260
C           2.66167468763082   -3.27542700734688    5.03316530925043
C           2.12265045828191   -1.87006966385202    4.87186063296152
S           4.03203660182326   -4.96571491408086    6.49036542975810
C           3.29393688621295   -5.50603498260672    4.98812599965337
C           2.59123555182162   -4.46507947710582    4.35220681007821
F           5.34310595005232    2.15915958387511   11.75752604797707
F           4.85169820933267    0.07310100908739   10.32234473497486
C           5.15254803808310    6.62529602710266   15.07957098971888
C           7.43267358350753    6.74566231042396   13.93961503761112
C           2.70852644912264   -1.14985529623369    3.64145177823169
C           0.58185046417096   -1.92811152409091    4.88908523475758
C           5.56293662503881    7.37622823446650   16.33883811821045
C           8.19629914907119    6.99066009805438   12.64342538579851
C          -0.11089077792332   -0.57408874477925    4.81660941002275
C           2.28617584271519   -1.72399973559615    2.29600047272689
H           6.26289628642618   -9.54383423996665    8.05667714761407
H           4.76419345691488  -12.05253418507839    4.01773162313344
H           2.83509210647474   -6.86569162666269    3.49029796224438
H           8.79456520420580   13.31505708686429   17.31570713377077
H           6.95905459026677   17.13740664623468   14.69663761227210
H           4.96093244565073   12.61341659467370   12.36385354579312
H           6.53464939264969    9.91617696097149   14.76294141735756
H           5.59329411047162    4.13185178544826   12.77921848689317
H           2.24218067422324    0.92161858011674    6.26188476407972
H           2.06406347792968   -4.63373889346192    3.43013292761963
H           4.08909659407524    6.79665262488471   14.89382430566678
H           5.29341296254367    5.55351340024229   15.23401499443218
H           7.83639631336145    7.39463487266173   14.71661958477505
H           7.56770126143674    5.70847586874789   14.25184818927950
H           2.42074312120939   -0.09910976317815    3.69690596091702
H           3.79779342640643   -1.19460587358254    3.72060576389412
H           0.25545258051966   -2.55160938625482    4.05572141723398
H           0.28129376259765   -2.43243005722305    5.81111339875874
H           5.42399036832833    8.44661577783534   16.21827698905581
H           4.94501341121943    7.04535483655704   17.17047749389441
H           6.60088699743049    7.18414930008950   16.59444197884600
H           8.07902349801407    8.02147659796589   12.31652641109345
H           9.25549421222568    6.79913771817282   12.79574616052005
H           7.84041806237847    6.33537929609524   11.85163560151441
H           0.13214556512125   -0.05303442893506    3.89491080714768
H          -1.18840241788953   -0.71929828035890    4.84786539934766
H           0.17086826165269    0.05157104429379    5.65868159951368
H           1.20838449237746   -1.68313649381538    2.16657896753464
H           2.74363627590775   -1.14392066121473    1.49771897978459
H           2.61378376687726   -2.75427150033247    2.19259962719913
