166
 SCF done       -265.411746776226          0.000459304943
C           2.32468529538354   -2.38775303011971   -0.08956371709494
C           2.48627461801779   -1.85412506116315    1.21070228941504
C           1.59290269079080   -0.92552433669243    1.73925468218778
C           0.50203079577703   -0.59569633705363    0.97076768632783
C           0.29778249011342   -1.19356095666213   -0.29592238174844
C           1.22587010773265   -2.06963957791409   -0.85262283159111
C           3.43405387123014   -3.37724103762525   -0.41058723235702
C           4.13502312409561   -3.45680591423294    0.92309077013918
C           3.60321212435093   -2.52195319694803    1.80043024879202
C           5.13987027387179   -4.22782806949967    1.49284632267682
C           5.36666582924595   -3.89227223870284    2.81887411337636
S           4.35017942817152   -2.56437744341421    3.34258334842141
C          -0.65925656919696    0.31724777769889    1.33135319911902
C          -1.62037943405798    0.00561135182707    0.21208188216052
C          -1.00536161150767   -0.80161445376875   -0.73214063188966
C          -2.95035385567582    0.28264380701970   -0.08414883106355
C          -3.36118316834725   -0.32700316622369   -1.25522848708022
S          -2.05453475333672   -1.21331593304682   -2.02468018158891
C           6.20408325213001   -4.54890038103102    3.76824727748452
C          -4.69243586807503   -0.39694081085508   -1.76673726850732
C          -1.17490872296764   -0.02044036690168    2.71388000565783
C          -0.30765073379934    1.79251320030813    1.21861133788977
C           2.81871447719373   -4.67911985272656   -0.87819186717006
C           4.44317119473127   -2.83859911013550   -1.41086159614459
C           6.86450966208872   -5.75389825659597    3.52536417903199
C           7.56121516347463   -6.45200260467246    4.50306077816902
C           7.67755978770402   -6.00588119012923    5.82117410852020
C           7.07333392856202   -4.74739858357524    6.08174300419542
C           6.34876333794273   -4.04412290502514    5.08065217581933
C          -5.00826331725798   -0.97244521489091   -2.99465844710575
C          -6.31506687542630   -1.17645920459549   -3.42013039458014
C          -7.41923994471315   -0.86882113028640   -2.63031484705107
C          -7.13573403515524   -0.19913259421737   -1.42067582252820
C          -5.79645898258889    0.04096832036654   -0.99636379617773
N           7.00858155463540   -4.01717745926597    7.20367929915306
N           6.30446583419687   -2.96992592910526    6.86838734945485
N           5.88080076257122   -2.91967474178678    5.63758221803498
N          -7.94904643999929    0.32956545526845   -0.49707705948100
N          -7.14071493588805    0.81354305635200    0.40125221484746
N          -5.86376535955198    0.68134244965762    0.18026446337633
C           8.29226145507944   -6.66584980048768    6.92157844390855
C           8.80459028768744   -7.91582879500291    7.09233575066008
C          -8.74915352269698   -1.21960732958698   -3.03269277672402
C          -9.75269476049518   -1.59870526093737   -2.20684005168093
C          -7.63708631752202    1.37079983446389    1.62594307969911
C           5.98416600646656   -1.93957879073291    7.81431724727752
C          -9.67238488209015   -1.98422577627665   -0.79974198651877
N         -10.94160985222724   -2.28454358580563   -0.30712119387269
C         -11.96538259105232   -2.23692987122438   -1.19592486327591
S         -11.39835412652726   -1.80829460164673   -2.79346426479010
C           8.92508088488065   -9.06592023330274    6.20676726202569
N           9.42432885905558  -10.16840282896581    6.89652283552878
C           9.73127791254752   -9.98361932876477    8.20573855119789
S           9.40657340274323   -8.34244497786678    8.69782799244452
C           9.62681371265243  -11.40836531356391    6.16990439979753
O           8.64162669236509   -9.13965378257091    5.02900962765307
C          10.21796230905431  -10.89683996548660    9.10905440562173
C          10.45155010330463  -10.49193765132249   10.43961081593235
C          10.52029313665942  -12.24615525650468    8.86405308450519
C           2.52428459039224   -4.86568038910398   -2.22341045175964
C           1.91458697921306   -6.02840615872216   -2.65379476342783
C           1.57735167976638   -7.03224981045011   -1.75508639743496
C           1.86631777642282   -6.83777238460891   -0.41134301831941
C           2.47272741365983   -5.67412515139698    0.02507288226505
C           4.47160493187634   -1.50261660888926   -1.78197650718121
C           5.43405094952690   -1.04089044688969   -2.66226190644416
C           6.39189867619233   -1.89585065990967   -3.18854439768357
C           6.36637987391092   -3.23080284396030   -2.80385783028632
C           5.40783664208089   -3.69674674789885   -1.92581910685171
C          -0.59963472303930    0.57116352436922    3.83198066423305
C          -1.03475583010892    0.24389133300157    5.10197577317741
C          -2.05165655138007   -0.68292210618391    5.29080775836104
C          -2.61817035696659   -1.27647937438903    4.17102511875705
C          -2.18254193833652   -0.95668958475444    2.89820529507542
C           0.89467709881813    2.22998384705188    0.68344364606299
C           1.15777532155054    3.58332634703871    0.56779098999243
C           0.22942576181437    4.53088893287353    0.97532403354368
C          -0.97798266275273    4.08691390143212    1.49993302514876
C          -1.24480658126915    2.73722139976176    1.62011366288520
O          -8.67828577277605   -2.12158494757356   -0.12340948669828
C         -11.07499510236814   -2.60480782470817    1.10116198608750
C         -13.29645566503147   -2.49526913758300   -0.98108220350656
C         -14.20015446508963   -2.42082924433679   -2.06151697160548
C         -13.89886097184905   -2.83375553004833    0.24178526901147
N          10.64482197644352  -10.17471819251933   11.52514656146223
N          10.79097233141419  -13.35547368956900    8.73568866797936
N         -14.45656122088671   -3.10368322789303    1.20952521119488
N         -14.94663537289266   -2.36549851366961   -2.93070400823787
C          -2.56057401173527   -0.99610539847976    6.66851046026085
C           0.50511998903682    5.99711759424752    0.80502999428333
C           7.46106028267800   -1.38228319222389   -4.10930433600108
C           0.96099153129813   -8.31496436137201   -2.23371983269855
C           2.04930440810982   -9.32373561194874   -2.60652806876670
C           8.68650100574730   -0.93628239729992   -3.30899647930630
C          -7.61762029560800    0.30245864421424    2.71603258653089
C           0.10149424156010    6.45801601550980   -0.59681982799295
C          -3.70498081423890   -0.05181894348732    7.04238831861574
C           4.49786629042655   -1.97598768857320    8.15331626722974
C          11.07140523909048  -11.55918258319996    5.70861088161387
C         -11.46124794823646   -1.37429349504795    1.91370343686862
H           1.73953921190504   -0.51826234828810    2.72774902786971
H           1.06085987140205   -2.50616690365837   -1.82570003107910
H           5.67176825499102   -5.01057796399118    0.98430867971749
H          -3.62504455629735    0.86051619341686    0.51893081332978
H           6.80734384950002   -6.18843433000308    2.53967857077695
H           8.01208867446561   -7.39196480320320    4.23370368091886
H          -4.19827377837890   -1.30054645703515   -3.63018901151924
H          -6.47982743514192   -1.65988116400288   -4.37222319932668
H           8.30847151541762   -6.04576969945442    7.81242057679331
H          -8.95810999928152   -1.18535329603110   -4.09551670546577
H          -7.00029999353338    2.21395744113268    1.90182627584063
H          -8.65508815295013    1.71523088599855    1.43554566472148
H           6.59712244452971   -2.11868117626182    8.69889016309796
H           6.24287178873915   -0.97523722351040    7.36943638145873
H           9.32862602524936  -12.24716656081503    6.80065764278517
H           8.96567194776202  -11.35555343503709    5.30036814594969
H           2.78331536657987   -4.09925965878693   -2.94002354838790
H           1.69435819467305   -6.15719593912642   -3.70412645318699
H           1.60905828134293   -7.60447299999417    0.30574614088607
H           2.67837283474624   -5.54101695633097    1.07737887227516
H           3.73679877617942   -0.81640138072560   -1.38716470037124
H           5.43713143946345    0.00209444776472   -2.94603320871844
H           7.10504366994486   -3.91352267318547   -3.19932023082906
H           5.39727188940486   -4.73994845354316   -1.64492633694157
H           0.18672793563634    1.30185342998183    3.70634144621420
H          -0.57687202468964    0.71528938286055    5.96026649908482
H          -3.40851316930187   -2.00333866717360    4.29530399142720
H          -2.63452580547079   -1.43801978097725    2.04343031014790
H           1.63512931362308    1.51406610337850    0.35841230681699
H           2.10322987145944    3.90674915503139    0.15573421567644
H          -1.71683797995451    4.80773277304965    1.82044806375781
H          -2.18521258128551    2.40902963563851    2.03808082239084
H         -11.80765156153739   -3.40298229691160    1.22699989662737
H         -10.09118771472024   -2.96530290254021    1.41603093270496
H          -2.91825209105389   -2.02701145546722    6.70602156692805
H          -1.75300114071301   -0.88768906722747    7.39530444726858
H          -0.05558700184281    6.56867827673416    1.54711896763190
H           1.56876725927352    6.19340362144727    0.95482764168780
H           7.75520355231705   -2.16687250493898   -4.80939292610699
H           7.07974843661241   -0.53615766223952   -4.68450391747683
H           0.33073474917538   -8.73867314738590   -1.44931248690357
H           0.33566816304858   -8.12138285136021   -3.10766789124445
H           2.67557592691246   -9.54009594040964   -1.74387583437278
H           1.60448170449903  -10.25294209523143   -2.95481445852727
H           2.68145023269060   -8.92347145233085   -3.39614827897009
H           9.08914471889630   -1.76977729944636   -2.73776193511913
H           9.46173591098148   -0.56438318021537   -3.97485832630759
H           8.41617784674411   -0.14493749548845   -2.61333449517322
H          -6.59310094613293    0.00587315092231    2.92708316397573
H          -8.07046688155864    0.68662547975418    3.62566881785096
H          -8.16955990326422   -0.57393245410732    2.38419877409512
H          -0.95865652726814    6.28040343539594   -0.76259064492864
H           0.29985915903044    7.52009037949080   -0.72058068554689
H           0.66111895503353    5.90946749406935   -1.35097186493830
H          -4.52690171217921   -0.15674045065072    6.33757661902477
H          -4.07304985875594   -0.27536017044154    8.04098659846829
H          -3.36502931317354    0.98128289127793    7.02017787228216
H           4.23645489379766   -2.92603059543249    8.61314721289838
H           4.25736349268257   -1.17460631473956    8.84577729872266
H           3.91063724547975   -1.85002507231550    7.24702503323542
H          11.75147096040584  -11.59768179029123    6.55626375365301
H          11.17384689850130  -12.48311805337044    5.14755992872769
H          11.34860059339938  -10.72604798054527    5.06656995875560
H         -12.45109163981499   -1.01956955765694    1.63717031554759
H         -11.47237369876985   -1.62756608809741    2.96964611287327
H         -10.73947480008267   -0.57732073385195    1.74820114343220
