107
 SCF done       -184.308933424867          0.000597020151
S           0.85969460293951    0.18276228117365   -0.71061103883268
N          -0.04750183534392   -1.14345126143967   -0.67481578899426
C          -1.28939292845848   -0.81687214339020   -0.32241669871873
C          -1.42215127508556    0.59954259826765   -0.08883439938753
N          -0.27138629899472    1.24077897152268   -0.28200083823880
C          -2.40219972141955   -1.69075166336159   -0.17723985662381
C          -3.59649785498467   -1.09307678424312    0.20886369230055
C          -3.72125940985475    0.26850579098744    0.44567760352081
C          -2.66597939246236    1.16306083734338    0.30884320384734
C          -2.81870989761266    2.56240740370500    0.55790308036542
C          -2.29850729102954   -3.09627500394212   -0.41636665735479
C          -1.16509435977934   -3.82121821971008   -0.74804958680949
C          -1.42229501829840   -5.17717635712443   -0.89691314746825
C          -2.77087866418499   -5.48925057258579   -0.70616269988329
S          -3.71976307547022   -4.11850233442640   -0.30534058648372
C          -0.63071151431289   -6.41286019337590   -1.26169787391443
C          -1.73052353992652   -7.45213105148777   -1.25694277904087
C          -2.96462866604435   -6.86689699948087   -0.92516419275750
C          -1.82137695694124   -8.81408873607806   -1.45593869087584
C          -3.12282224171071   -9.29433253732211   -1.30950501917149
S          -4.24567773468037   -7.99160194799701   -0.89192442234568
C          -1.88314494724715    3.56827399356516    0.37550020424915
C          -2.37599378207622    4.81949965314811    0.71627681916188
C          -3.69390433946037    4.77587495704224    1.17565213744281
S          -4.33938608515598    3.18697316843650    1.17334773307038
C          -1.84055822805143    6.23167492666028    0.74892339123157
C          -3.05699975003139    6.97504884275700    1.24777197691917
C          -4.11261010249875    6.08119183635138    1.50195537795666
C          -3.39532426515057    8.28842452135230    1.49783564459239
C          -4.70127765833953    8.42731394526532    1.96878898638938
S          -5.51507727014672    6.85924053939263    2.08018761386088
C          -3.68884057334322  -10.56978661787794   -1.45052997967534
C          -3.13253617778892  -11.79656943669140   -1.71823794744531
C          -3.91740535958936  -13.01256420913527   -1.85100828512161
C          -2.98761771248637  -14.13799166330595   -1.93366829504288
C          -1.67667834091508  -13.63547557612397   -1.93923636693869
C          -1.70488850748777  -12.16322452320384   -1.83829243387408
C          -3.19497631600456  -15.50674773294915   -2.00437378549430
C          -2.08793848331986  -16.34172798723603   -2.08473999122485
C          -0.79621604870354  -15.83574454820460   -2.09733038524918
C          -0.57765675069057  -14.46756800701847   -2.02304415339340
C          -5.28081164198128  -13.12007997661770   -1.94993382389085
O          -0.72573173764386  -11.44215301947844   -1.85052247845930
C          -5.96937426246754  -14.34350275515606   -2.09415343701163
C          -6.20902967775914  -12.05709664652466   -1.96331296836246
N          -6.60157579865722  -15.29503816000324   -2.20910942606813
N          -7.03874757389593  -11.26336572070330   -2.00850784904574
C           0.40133320228055   -6.78471252374237   -0.17839566589681
C          -0.02114625772133   -6.21425098075427   -2.66376572411907
C           1.54126504061544   -5.78909265797491   -0.01136079519980
C           0.78021265214962   -7.39765980530984   -3.18902394820026
C          -1.40239710339255    6.71779643168264   -0.64161484569603
C          -2.48499284229281    6.52956006928591   -1.69808049946706
C          -0.67825999773306    6.27871200974718    1.76566935362054
C          -5.45066847723614    9.53788774729790    2.38313803657904
C          -5.16916782225641   10.88211716457073    2.39426657855709
C          -6.08984361929357   11.88196355752179    2.90849297314072
C          -5.55528355120071   13.19937386677044    2.56733376551580
C          -4.30735913705381   13.02831310280840    1.94715683768274
C          -3.99386973905097   11.58971814903937    1.84217014980237
C          -6.05605219259410   14.47832487653244    2.75412701591443
C          -5.29582581020721   15.55749254679864    2.32207673162929
C          -4.06004300413001   15.37931038497393    1.71727073425892
C          -3.55160868348379   14.10313623760716    1.52200937746115
O          -2.96738613556724   11.12878326648013    1.38115461543605
C          -7.22621860174307   11.66870299778703    3.64568080167404
C          -8.06107459921575   12.69938690767203    4.12753703683516
C          -7.72431981280906   10.42072552097501    4.07700958427601
N          -8.19468373843047    9.45857424540004    4.49336302420202
N          -8.79074532019388   13.48005446493764    4.54766298633459
C          -0.08594769654303    7.66119712829553    2.00258361875353
H          -4.46797733545251   -1.71931629628984    0.33229106128921
H          -4.68487431496422    0.65268213734502    0.74691328351519
H          -0.21394611402017   -3.33947591799649   -0.87493230313338
H          -1.00636893292022   -9.47392848221796   -1.68851956100480
H          -0.89731172728173    3.36146554169149    0.00327725384415
H          -2.76177139428315    9.14237542986135    1.34483731311267
H          -4.76312621610129  -10.56721510859069   -1.30706269983949
H          -4.18530720439648  -15.93090417081720   -1.99342763741493
H          -2.24106090989999  -17.40919551727749   -2.13851955634076
H           0.04262778018100  -16.51221954940043   -2.16344028433568
H           0.41748478375378  -14.04986391395577   -2.02830575004875
H          -0.13371767779749   -6.87462961141472    0.77076456908598
H           0.80441540163595   -7.76902667653662   -0.41959908805286
H          -0.84309004815664   -6.00591335193959   -3.35391912227838
H           0.61243698750282   -5.32631911407173   -2.63496307297205
H           1.16402866297691   -4.81007291049464    0.27051330018468
H           2.20821068597773   -6.13439438803597    0.77559508897144
H           2.12025700696231   -5.69201113694740   -0.92544152218092
H           0.16446879422213   -8.28989852490428   -3.25122288896086
H           1.14637361708018   -7.16889818879428   -4.18758937681371
H           1.63729143842947   -7.60919721926255   -2.55609195122611
H          -1.15209533950561    7.77672007991609   -0.57643900754033
H          -0.50635448804367    6.16758970714845   -0.93546708294309
H          -3.38794886403108    7.07030841210774   -1.42343410679778
H          -2.13857719371678    6.90863321331945   -2.65641839883959
H          -2.73557453056978    5.47764531032694   -1.81612396655336
H          -1.04691871878207    5.88226410606995    2.71532091606396
H           0.10333478721896    5.60518304482591    1.40729641711227
H          -6.43323609660715    9.26489362923042    2.75028825863263
H          -7.01371393011597   14.64950877434353    3.21714827725946
H          -5.67969547096747   16.55691098669900    2.46217934773438
H          -3.49294917552069   16.23985007340924    1.39552220024585
H          -2.59415850707379   13.93858531123141    1.05188194171794
H          -0.84007371355507    8.35147037101931    2.36875297417228
H           0.70109426673595    7.59102061054516    2.75015905528361
H           0.34856133864249    8.06722666147128    1.09364270266356
