71
 SCF done       -128.263594542749          0.000252630751
C          -1.02387401056668    1.66880513770666   -0.27337132545239
C          -0.20852783284833    0.91582613745185    0.57498066509529
C          -0.13611697340259   -0.49550834064925    0.50104437694058
C          -0.76782153267261   -1.22164759695353   -0.51412352792604
C          -1.55494808415516   -0.47344487295122   -1.42893152214917
C          -1.71146919740737    0.95030915312022   -1.28786528491938
N          -2.25271148326414   -0.94638181010368   -2.45885154238377
S          -3.02785123950585    0.26558469532385   -3.17504770969722
N          -2.51923355691581    1.45253534391117   -2.21849746426580
O           0.50888862134234    1.59272315315276    1.52774827314642
O           0.61483456821409   -1.21075422842227    1.39099888030249
C           0.33095282708452   -1.06688903724632    2.78427966008648
C           1.93283306379835    1.54067076727827    1.38336175277604
C          -1.14362676903876    3.08690161553383   -0.13027340549632
C          -0.65065556049342   -2.64444453012648   -0.59653057294501
S          -0.33618038062027    3.93598373874604    1.14768599945484
C          -1.00739245773563    5.45372646152251    0.62024868973521
C          -1.80970899063325    5.27467762758257   -0.49896936812993
C          -1.88658779903446    3.95521589721353   -0.91490424127704
C          -1.22751396011790   -3.48983891262003   -1.53201085028572
C          -0.93851781509628   -4.82807988793837   -1.31750955649160
C          -0.13199963515935   -5.04607917632009   -0.20817115434370
S           0.28107521615430   -3.53950980207074    0.55913127418505
C          -0.76317869357527    6.68045336448095    1.26793012756569
C           0.00644014046404    6.90129296732855    2.36446342277392
C           0.29560544162366   -6.29857709421162    0.27368722419849
C           1.01730460325969   -6.54646934052244    1.39716457294198
C           0.15809889760119    8.22758721562547    2.95917651349417
N           0.98112010850384    8.15934387861997    4.07357103874595
C           1.48835791373298    6.94561067158346    4.39646737890623
S           0.92148844115434    5.71825143189421    3.26229112729185
S           1.60691494027345   -5.37390642225901    2.54779853044953
C           2.30760286374233   -6.64364908697784    3.55307905100917
N           2.08546066165187   -7.86182550498834    3.00382796695250
C           1.38391502104282   -7.90008282556513    1.80799438559286
O          -0.35507439380807    9.25205931134793    2.56787145514004
C           1.29614138476215    9.35557977068549    4.83027106520449
S           2.47458719148916    6.62521632691169    5.65499267340923
S           3.09586416688640   -6.35607257014079    4.95180657491514
C           2.57780019149486   -9.08433762122030    3.60861910962049
O           1.11860678061152   -8.92505246294059    1.22047948251538
C           2.63411750070014    9.94503787126820    4.40276645111764
C           2.55887287361033    2.20294145032833    2.59674337071527
C          -1.07612038114000   -1.52769561730192    3.13738410409011
C           4.03567982221883   -9.33271224048132    3.24349767083987
H           1.07726662926651   -1.70209520038971    3.26583067497186
H           0.47113462963500   -0.03001362314835    3.10205232828616
H           2.26635232010213    0.50102275882249    1.29346321619961
H           2.21183628314107    2.07676980496591    0.46617133622357
H          -2.31889361048135    6.08863292749916   -0.98370565320412
H          -2.46012411514080    3.61201304688980   -1.75538033463118
H          -1.83799498121609   -3.11821674856594   -2.33349115203096
H          -1.30360294660609   -5.62873706290453   -1.93593313368543
H          -1.24905227842934    7.55767900335112    0.85588747830819
H           0.01159301356765   -7.17211155699848   -0.30183971131765
H           0.48733232008770   10.06382044945053    4.63523589311558
H           1.31709324214718    9.09071247893718    5.89014155256846
H           2.46528330615068   -8.99606238825276    4.69180830993128
H           1.94632629898553   -9.89106547875215    3.22904056069120
H           2.61501439413950   10.19521395793425    3.34456180438050
H           2.83068678709374   10.84827487304340    4.97257015898709
H           3.43640634552255    9.23455312551762    4.58705747310741
H           2.30281127601886    1.66056902939862    3.50271485195967
H           3.63907170758031    2.21267123168260    2.48568020174207
H           2.19914658469642    3.22320076726407    2.69177659586705
H          -1.22188059088094   -2.56404691916006    2.84358612682959
H          -1.22284361682436   -1.44125976821431    4.21005622861573
H          -1.81726321221031   -0.91026170007617    2.63239570956470
H           4.65937846254410   -8.51790996008877    3.60347913492598
H           4.37207900544324  -10.25772983033237    3.70224980319577
H           4.14535025147820   -9.41600822453620    2.16468520193514
