134
 SCF done       -240.631267643280          0.000535191429
C          -1.52228805675970    0.41111768781304    0.03890877813132
C          -2.56844149936693    1.25457051899084   -0.25517649315295
C          -3.80883102534585    1.36624025479326    0.51287069345725
C          -4.58031600816770    2.45846958326594   -0.11577169869043
C          -3.86282266233632    2.95975838597869   -1.21498713755869
C          -2.60977966296642    2.21167138984045   -1.34106768288535
O          -4.15465441732796    0.70327086355738    1.47430884932804
C          -1.67456611413257    2.40334183969845   -2.32498444390907
C          -0.47329115633752    1.67843539603206   -2.47299166265565
C          -1.79234092703969    3.36499876772953   -3.35119408930348
N           0.51989736515643    1.13530492865475   -2.66864626538866
N          -1.82682780304485    4.12364956637070   -4.21167951083297
C          -5.80681894219606    2.96902949135240    0.25892313211932
C          -6.32309116480896    4.01379837735492   -0.49095011176606
C          -5.61836495382190    4.52010841868919   -1.58303003600138
C          -4.38673281298138    4.00413894395173   -1.96004549416626
C          -0.55483556998203   -4.86753193284147   13.68167579515211
C          -1.23739069176137   -5.07883035691660   14.85625498237504
C          -2.64493816308289   -5.48316165411182   15.04541667162921
C          -2.89170171944710   -5.39665802977328   16.50215319452179
C          -1.71253205715740   -5.02171217517661   17.16288746795097
C          -0.65156908858021   -4.85869306441817   16.16799466223555
O          -3.46393538683880   -5.83878512839366   14.22292603419730
C           0.65419309139393   -4.56968090091153   16.46911586102280
C           1.72414949470519   -4.44858341915541   15.55614642815028
C           1.13517717147732   -4.36640245792820   17.78102277445928
N           2.66071116073377   -4.33993985855015   14.89987089073833
N           1.59590421020439   -4.18707547644569   18.81676328957447
C          -4.07411322346488   -5.62927438247711   17.17606963613423
C          -4.06981570318144   -5.47281593873959   18.55223618823001
C          -2.90408031459129   -5.09513900804475   19.21913242133994
C          -1.71590969999790   -4.86722647349120   18.54088749368247
C           2.24396766038471   -2.66605807370330    2.34083324760823
C           0.45842520686032   -4.40403644774754    2.63044162689137
C           3.18218909892926   -1.93999621759831    3.05813991151276
C           4.41328392833606   -1.65181366662006    2.49768344007517
C           4.72860067470502   -2.06821339480852    1.21133454912162
C           3.78166903727985   -2.79524933386056    0.50014921334117
C           2.55295462654507   -3.09475355311878    1.05574965885297
C          -0.45490580171166   -4.73070124375334    1.63799114118754
C          -0.85155274330152   -6.04347102440247    1.46245540318187
C          -0.35508791267541   -7.05620831159327    2.27286473065479
C           0.57518592778927   -6.72484101648793    3.24915329584268
C           0.98174315738483   -5.41596795318220    3.42446414783025
C           6.07863409587560   -1.78585627148806    0.61933025994917
C           7.04927319214184   -2.92475816883924    0.93805430449935
C          -0.78410400020054   -8.47953088238066    2.06295884178720
C           0.00768261929138   -9.11757030171057    0.92002085557127
C          -4.57387138911017   -5.55787398570680    9.95501448372236
C          -2.82507274309363   -6.66687748973294    8.54547404425772
C          -5.51840458807256   -4.54730394057463    9.86929982842070
C          -6.75304755495935   -4.69950042787922   10.47399192171041
C          -7.06478283415871   -5.85127503401213   11.18314389486680
C          -6.11094594937084   -6.85841416905118   11.26337611405725
C          -4.87929222649538   -6.71851179067350   10.65536343065408
C          -1.95787544711234   -7.62368870334912    9.05387095220578
C          -1.58696850730080   -8.70787207061700    8.28029015359251
C          -2.06330654591432   -8.85939698810397    6.98456399646944
C          -2.95064418335855   -7.91167438899330    6.49193047966624
C          -3.33228359616102   -6.83068797283192    7.26323623397243
C          -8.41959717967669   -6.03080761816783   11.80420809605302
C          -9.37312565599462   -6.70533604744456   10.81579952894860
C          -1.65986099667979  -10.04545736492842    6.15727898485278
C          -2.51442707716499  -11.26418788326207    6.51035445940971
C          -1.35909669188830   -0.49411767347495    1.09119935446880
S          -2.51323784016973   -0.87078960884881    2.35834945402778
C          -1.37963746274338   -1.93506604446312    3.09036706005489
C          -0.16747511899331   -2.00870363144803    2.38988807746738
C          -0.16334968217072   -1.20522774140958    1.27305136435936
C          -1.45545960997871   -2.59428054700900    4.33473412244066
C          -0.25112891150186   -2.94346599034475    4.95173450788147
O           0.94172082973893   -2.81108799066299    4.35420268704644
C           0.87720322323505   -2.96245258868033    2.91576919201853
S          -2.85382740483663   -2.93234492208489    5.31323005261462
C          -1.82357774118341   -3.50023446719414    6.58003322230797
C          -0.46417042108983   -3.40567085379919    6.25456945094592
C          -2.04124475304140   -4.04920908426400    7.84775879236067
C          -0.83473337162735   -4.27237789632886    8.51725626799075
S           0.56609328197738   -3.90870781809938    7.54914768569593
O          -3.23857238133265   -4.31047422354823    8.38917165749583
C          -3.20537196905848   -5.41091703393641    9.32897757746909
C          -2.14471398753785   -5.10855051996934   10.35961758314402
C          -0.91730266447374   -4.63820263414221    9.87695435787046
C          -2.16894806717919   -5.26488959919788   11.73157809829982
C          -0.96353039219783   -4.92749894946879   12.34209180108847
S           0.22454087020964   -4.42224021671684   11.13760375371332
F          -6.13871119943635    5.53094312437404   -2.28766385138027
F          -2.92856031112331   -4.94612296503579   20.54844941067778
F          -7.50775490442964    4.54327744780639   -0.16299612889979
F          -5.19397731609062   -5.68307843339166   19.24832956027153
H          -0.65901010311899    0.45993768314695   -0.61343541406157
H          -6.34671501351142    2.57484497715789    1.10499729087384
H          -3.88395968139089    4.43299126200916   -2.81107283458284
H           0.47487279234846   -4.54914796871084   13.79089635516492
H          -4.97120724372632   -5.91901980143550   16.65261209894165
H          -0.84603555570438   -4.57660846860368   19.10601210592383
H           2.94726355097654   -1.60691893375123    4.05686753487402
H           5.13744505375218   -1.08778203743367    3.06776772036930
H           4.00803560073634   -3.12911211964952   -0.50209848213636
H           1.83013271315260   -3.66528279993721    0.49096347748892
H          -0.86569010083165   -3.96110896467231    1.00071293603080
H          -1.56971119721696   -6.28123986392922    0.69096395447119
H           0.98175506187086   -7.49777557212613    3.88527658974682
H           1.70216434914465   -5.16887474206573    4.19059127691100
H           5.99245426380439   -1.67927219540623   -0.46352816742118
H           6.47329644770956   -0.85263565473123    1.02493794940325
H           6.67876885719881   -3.86280062890508    0.53113207838654
H           8.02721893762959   -2.72154330695747    0.50851251734986
H           7.15866415515529   -3.03876170662386    2.01407767687793
H          -0.61964378483013   -9.05241974760744    2.97769217026043
H          -1.84931649785455   -8.51191768253500    1.82303912962999
H           1.07171471898857   -9.10679852682199    1.14539796324091
H          -0.30586300341405  -10.14790449130436    0.76993570073051
H          -0.15149280031560   -8.56807416368218   -0.00486670497530
H          -5.28626004675206   -3.64509338862838    9.32550223772933
H          -7.48260834216976   -3.90590921365085   10.39828598958633
H          -6.33337326004469   -7.76192225252873   11.81192422748788
H          -4.15173045431726   -7.51345216435037   10.72409440024949
H          -1.56231872712847   -7.52415870042855   10.05436713920312
H          -0.90378254354578   -9.43979896735064    8.68654510994859
H          -3.34200131064488   -8.01481542155923    5.49011446529294
H          -4.01939071750396   -6.09713919273142    6.86724461312260
H          -8.33592683686591   -6.64765084853291   12.70083451411454
H          -8.82739193413676   -5.06029647251574   12.09267011596416
H          -8.98863742789377   -7.68017342682602   10.52442804441922
H         -10.35461229974148   -6.83856825674916   11.26453496113318
H          -9.47985388110258   -6.09868502706228    9.91940685366560
H          -1.78399181326363   -9.81396646781675    5.09753652133891
H          -0.60845950216855  -10.28037134908175    6.33765719222760
H          -3.56546163591800  -11.05500667703980    6.32456054558432
H          -2.21879113434627  -12.12186250807510    5.91079494128338
H          -2.39707296868483  -11.51809262407182    7.56124320896562
H           0.66731969853601   -1.11202674357270    0.59585516035115
H          -3.02106834801134   -5.60927640152047   12.28830787462245
