115
 SCF done       -197.177784524292          0.000861411022
C           5.07574723106894    0.43404900107386    2.09099491548129
O           5.43350292567040   -0.54275186253751    2.72328492939950
C           5.82280107863226    1.70321282431444    1.95637443845221
C           7.05065029086050    2.03605425336808    2.49186199914760
C           7.55095490484176    3.29823473710735    2.21470062413617
F           8.73901821540176    3.66450170089158    2.71148848928057
C           6.82866476048361    4.18982972062610    1.42189877745228
F           7.33627418460413    5.40149505627117    1.16807394618565
C           5.59382691677341    3.85445046418255    0.88563077174618
C           5.08628554561020    2.59392237414813    1.15813614242763
C           3.84008912351173    1.94080026757639    0.75052539376292
C           2.86609976793159    2.52138295277096   -0.02054912612073
C           1.65564752309597    1.91637128544511   -0.41907532124850
N           0.64830589600049    1.50200924583344   -0.78442754862846
C           2.93929637119941    3.83535233177708   -0.53035637998177
N           2.93474480401203    4.89334354105454   -0.97529358625270
C           3.84633642710601    0.60722215916817    1.31526751388938
C           2.12739571900344  -18.28017688862404    6.47996034496028
O           1.33881846366109  -17.70028609820018    5.76092077134409
C           2.14843404272092  -19.74307526270279    6.70430509847441
C           1.33421039715534  -20.70032729904423    6.13231299378082
C           1.55120009033387  -22.02176871059791    6.48596395255591
F           0.78840147509075  -22.98533864124765    5.95447620349393
C           2.55992307717734  -22.35768370237265    7.38918957629731
F           2.75225415594367  -23.64265735412434    7.70873528143897
C           3.37380422373868  -21.39426308304245    7.96634660011047
C           3.16195927526757  -20.06917074680204    7.61768350089170
C           3.82694726964014  -18.83463073456723    8.03591274042738
C           4.79800258788172  -18.76543670441694    9.00105295914090
C           5.41469956797443  -17.59417206644647    9.49178128359702
N           5.96713364338660  -16.70346063951210    9.96240452975139
C           5.31176678709484  -19.88869447024831    9.68494688876570
N           5.77693091054326  -20.75509842595313   10.27691166868882
C           3.23443328628916  -17.73765008574516    7.28971070157511
C           3.01115324547536   -5.20950323495892    3.11589702345089
C           1.87822362748190   -5.91371090728681    2.65082791657720
C           1.68036483674478   -7.22744957422330    3.00753389083656
C           2.63409475762383   -7.82435389225174    3.82858749954144
C           3.76006101658862   -7.12003673804740    4.28990759071497
C           3.96090684576547   -5.80301792196775    3.94321648347646
C           4.62974734145414   -8.00114926425289    5.16697000980077
C           5.99957198881062   -8.12933091195717    4.46081510452700
C           7.08213388828420   -8.91139171810030    5.19123390769950
C           4.72530407566617   -7.33854477157217    6.56356396114869
C           4.88638404909371   -8.26616138251044    7.76188958658248
C           3.85855463503396   -9.30370334562165    5.13796935409189
C           2.70121132543636   -9.17359569528623    4.34136847793737
C           1.82445231117447  -10.23199138115014    4.11723178561030
C           2.12751469686656  -11.45212154610078    4.67619323882161
C           3.27441665684569  -11.57439638753719    5.49464664550878
C           4.14576467459351  -10.51403424704438    5.73095918731919
C           2.86905645577063   -0.34375664486009    1.13148395491554
C           3.72446066941522  -16.45314197558554    7.32565599528090
C           3.30413074202313  -12.91778844741411    5.97364522595974
C           2.21717746439687  -13.64147752541179    5.48001824581539
C           1.37115204614573  -12.76812910802288    4.58793293055665
S           4.33053865706120  -13.85264409863413    6.96096128431435
C           3.30989314755760  -15.27360420501648    6.69352995383861
C           2.22669473872691  -14.96684084143702    5.86997817609737
C           1.00514805785060   -5.03742325081965    1.76365699357236
C           1.77895201072333   -3.74430285211983    1.80025848547588
C           2.93517025785019   -3.88963794104114    2.57745008038814
C           1.68804435079517   -2.48333473879057    1.25463690589092
C           2.77049758540603   -1.65601160681940    1.60068316766568
S           3.91310688526527   -2.49470909380933    2.63981817065877
C           1.41261697450658  -13.37879338826058    3.16994785549152
C          -0.05318379475136  -12.56834203857387    5.14109830636998
C          -0.41428305681540   -4.94768896717845    2.37156620634295
C           1.01750909262657   -5.65664124113472    0.34835005244755
C          -1.13660998549442   -3.61987363184449    2.17669178965658
C           0.21708306355000   -4.90966985427027   -0.70882586696501
C           0.65498501206625  -12.61463792595340    2.09263371567636
C          -0.91421523445450  -13.82404683306897    5.17523286519595
H           7.60532570141848    1.34251927672523    3.10346995556790
H           5.07817765027656    4.58065853168524    0.27931504757614
H           0.55731956255356  -20.43356239170086    5.43369355829437
H           4.13862676723920  -21.70924159577241    8.65657942243548
H           0.81780735992275   -7.78061470228855    2.66847193511408
H           4.81130457098781   -5.23583024691454    4.28908023548268
H           5.82419833663106   -8.59314694740406    3.48585744886667
H           6.36933015038664   -7.11776835402229    4.27827095455504
H           6.78813182852681   -9.94434555101616    5.35012230899845
H           7.98695995528982   -8.91197222039378    4.58654802057197
H           7.32070405393806   -8.45487444634707    6.14741273107485
H           5.55584506944350   -6.63041495482757    6.54065091039997
H           3.81026189861469   -6.75992146707086    6.71755288207460
H           5.78424730545556   -8.87176184474721    7.69264983210972
H           4.95602932477412   -7.66435764276686    8.66600469607977
H           4.02649701481541   -8.92382470229476    7.86115529195229
H           0.93793639917734  -10.08161528992780    3.52200395783059
H           5.00224274914813  -10.66912518475724    6.36561308167241
H           2.02900566886658   -0.05457008610915    0.51159922645182
H           4.60858049007183  -16.31150328623406    7.93590599272918
H           1.51076385921331  -15.71417541285928    5.58424383122347
H           0.89407730754040   -2.11771234775756    0.62885649688217
H           2.46275923333291  -13.45429897195291    2.87460918316611
H           1.02001831543764  -14.39448355493722    3.23559287568370
H           0.04044562580474  -12.17246388361981    6.15613959644951
H          -0.55042506397772  -11.80472136337733    4.54105096589408
H          -1.01685203682506   -5.75432953437495    1.94983764398112
H          -0.33233872047876   -5.12945427227953    3.44636607803626
H           2.06014256965892   -5.72175112130009    0.02516300622931
H           0.63547290825507   -6.67692166467000    0.42668737637191
H          -1.23378136509500   -3.36246425200682    1.12703744581131
H          -2.13535467136249   -3.69008545657999    2.60270555313158
H          -0.60941310027371   -2.81616881284711    2.68429319766263
H           0.57285356665254   -3.88977177351146   -0.82071639847443
H           0.33145967731486   -5.41242731092385   -1.66695412049282
H          -0.84087828710737   -4.89340383449873   -0.46330174395621
H           1.10252915152503  -11.64040729448692    1.91684226232410
H           0.69733707797885  -13.17508326257432    1.16113348185573
H          -0.39036620715089  -12.48316020843200    2.35824022926646
H          -1.06224738506677  -14.23137026349529    4.17912164058529
H          -0.46538100300016  -14.58921588602455    5.80152476583855
H          -1.89058936301854  -13.57989642043239    5.58838190962113
