126
 SCF done       -205.329623021201          0.000818651226
C           2.14985521508015   -2.40064232955707   -0.16694469829075
C           2.17806147188148   -1.71355689390498    1.07021907478154
C           1.19531562153564   -0.79225313716102    1.42415187938308
C           0.17884741317184   -0.57973113498784    0.52292476974378
C           0.12903439088052   -1.29783105123653   -0.69594264833253
C           1.11720655867460   -2.21095835512332   -1.05473599192140
C           3.34601420974970   -3.32870243871762   -0.30266065054190
C           4.01946608877076   -3.12456956188311    1.03033464204129
C           3.33412095805855   -2.17244035421860    1.77192815066840
C           5.14926575811672   -3.61274026781586    1.67398303876691
C           5.32801683253128   -3.04229533577194    2.92347017873850
S           4.07051733349673   -1.86754306270936    3.28734367669976
C          -1.01222263413926    0.35605112058740    0.65236031759764
C          -1.76795400370231    0.03491570547312   -0.61193646412151
C          -1.06463730599619   -0.89212531089016   -1.36648359751871
C          -2.94659950324061    0.45519908636576   -1.21734965761868
C          -3.15640648079619   -0.16117089092766   -2.43849875369315
S          -1.85159686935125   -1.26950793509517   -2.84027560693163
C           6.35788498223318   -3.31299511624816    3.87197698270455
C          -4.26026911955291    0.00547847463980   -3.32855354951113
C          -1.75954687811836    0.02035136615783    1.92762333948333
C          -0.64043892978026    1.82763239996055    0.58708088727918
C           2.84606812482452   -4.74070902506149   -0.53625732248583
C           4.33022235042637   -2.89905028159146   -1.37707411283361
C           6.41744841629534   -2.67072204349265    5.10675658027278
C           7.40071567272595   -2.91979167053276    6.05356119719823
C           8.42319905393379   -3.84231922497904    5.84703381529017
C           8.40471324145162   -4.51965310905939    4.59607151902613
C           7.38592937531143   -4.26385364705415    3.61437741295586
C          -4.34717584432435   -0.67982804445930   -4.53709770933869
C          -5.40519914354579   -0.52560542282822   -5.42244484009260
C          -6.45651253305481    0.35457040412552   -5.19019788748451
C          -6.43788652276928    1.03335809589131   -3.94556449869955
C          -5.34974092681416    0.86717433734896   -3.01922730039750
N           9.27782453696435   -5.43521846334762    4.18366993529814
S           8.86324775429883   -5.92711470104764    2.71132590124192
N           7.55856242381952   -5.00709011472246    2.52271698446332
N          -7.39404944683753    1.81692860584460   -3.45537301106995
S          -6.95780216406876    2.33401603486423   -2.00267945574715
N          -5.54708300197963    1.56922463634626   -1.90405305283981
C           2.57335818418881   -5.17590739277585   -1.82722274352623
C           2.07725946203978   -6.44621729967613   -2.04932114435041
C           1.83449231238788   -7.31258606555231   -0.99132679466704
C           2.10028726305614   -6.86950498308495    0.29718834866270
C           2.59406565234469   -5.59823926106008    0.52512622031203
C           5.35924494485563   -3.76386737142327   -1.73142609818718
C           6.29692079437658   -3.39005827210573   -2.67362625268886
C           6.23902053955021   -2.14163395835118   -3.28097138341832
C           5.21649881003500   -1.27803929639955   -2.91473143744274
C           4.27524468503259   -1.64658922037836   -1.96995443758625
C          -1.37562832890526    0.60059574374306    3.13032837672891
C          -2.01530805998066    0.26315857105772    4.30748776553629
C          -3.04971886878881   -0.66389811926008    4.31749636139841
C          -3.42647914876088   -1.24337881245699    3.11377286028159
C          -2.78692726736618   -0.91209399929969    1.93328814885325
C          -1.60736458954441    2.77991259223753    0.88812179825346
C          -1.32194884483567    4.12684499615998    0.78347942951010
C          -0.06864695599103    4.56029318312823    0.36818099086887
C           0.89069453086419    3.60515217614252    0.06368314055810
C           0.60970721498911    2.25404580567693    0.16461857599295
C          -3.77360478568500   -0.99207206714897    5.59125561366076
C           0.25187885719010    6.02526776275133    0.29671536757474
C           7.22701907053218   -1.75761700744256   -4.34414950292365
C           1.34690626135065   -8.71100560574371   -1.23792607496164
C           2.53025155265804   -9.66685133708786   -1.40292010747895
C           6.71785409670218   -2.18410919500758   -5.72265159063840
C          -4.93066709234807   -0.01632238587830    5.81536850627984
C           0.76440943736158    6.52719280488987    1.64821130200188
C           9.46702444968750   -4.16278647360199    6.76547292091960
C           9.69079695187682   -3.66214028298664    8.01263473820719
C          -7.49590489062004    0.52878652499713   -6.15927468231424
C          -8.27660450632939    1.62835528448582   -6.32854914837390
C          10.79734025350076   -4.12606278973472    8.76157386540071
C           8.92329449954065   -2.69413475511250    8.69213205106565
C          -9.29111553650187    1.62272030664877   -7.31471657853660
C          -8.11856027001102    2.87966666507436   -5.69031818388755
N          11.69622058288863   -4.50096303221574    9.36648923994914
N           8.33997805286741   -1.91165861260266    9.29670486183789
N          -8.00215144287972    3.95643873702813   -5.31146397265539
N         -10.11652322914326    1.60034008418318   -8.11001918017850
H           1.23902709467720   -0.27311081433841    2.36905958104575
H           1.06465086675020   -2.74262262101092   -1.99224731111983
H           5.82431672525042   -4.35152729255344    1.28505685259114
H          -3.64329317168335    1.16487151674021   -0.81270837345272
H           5.65544250658984   -1.94113774217890    5.33945426296828
H           7.36297292740173   -2.37383328548951    6.98254635123970
H          -3.54996054449025   -1.36058394392495   -4.79803870265149
H          -5.39307221190414   -1.08467922381121   -6.34693330121887
H           2.76326655393661   -4.52075463893460   -2.66532245943367
H           1.87399071189940   -6.76935532245188   -3.06048715274896
H           1.91542615693895   -7.52626642965424    1.13540760276474
H           2.78709459891518   -5.27459289955946    1.53761305177313
H           5.41733605337952   -4.73978117234867   -1.27186012783710
H           7.08818548301377   -4.07621102236978   -2.94012193292246
H           5.15535360801212   -0.30017515534327   -3.37103236288830
H           3.49333707318919   -0.95248525383243   -1.69853315950278
H          -0.57879216836930    1.33037329099947    3.14327799512201
H          -1.70465249364273    0.72492617768625    5.23393611135399
H          -4.22829977448412   -1.96793269908074    3.09863128493074
H          -3.09352918110428   -1.38240398702130    1.01025992265887
H          -2.58683541543409    2.46071772577079    1.21326803099704
H          -2.08510282979759    4.85379005759322    1.02199045146438
H           1.87160509501247    3.91988025069594   -0.26343698352180
H           1.37228898673633    1.53138484855334   -0.08695319977413
H          -4.16549321146651   -2.00997584077299    5.54287509740434
H          -3.08355900413941   -0.93103299362109    6.43523537159169
H           1.01416864218420    6.20104643415857   -0.46491264650730
H          -0.64305408373741    6.58650315346190    0.02072750804844
H           7.37957173473006   -0.67656303375211   -4.33573730182912
H           8.18693482674641   -2.24023688512914   -4.15011096157257
H           0.73159231486672   -9.04196521937471   -0.39888465396095
H           0.73512670653030   -8.73653573762578   -2.14187550299703
H           3.15303810448984   -9.65463448799566   -0.51117800011552
H           2.17933786906990  -10.68285597978051   -1.56777723776132
H           3.14225578486399   -9.36847910511977   -2.25126505557149
H           5.76492367243241   -1.70578412739112   -5.93811917220608
H           7.42989688729365   -1.90392766151558   -6.49527555756835
H           6.57460934627836   -3.26192456640488   -5.75607035168414
H          -5.63612183016027   -0.07014745869142    4.98913703309021
H          -5.45612770608157   -0.25439775597988    6.73716909659892
H          -4.55823977237302    1.00350574763936    5.88096648220619
H           1.66404427035856    5.98746952382528    1.93564594782382
H           0.99721332411229    7.58813926285027    1.59669828014601
H           0.01239263686005    6.37335224885398    2.41887008840465
H          10.16578074267900   -4.90890894534066    6.40574771104212
H          -7.64789902523183   -0.29504192274969   -6.84776325089778
