# ORCA input file
# SCF done       -146.384239478693          0.000357402356
! wb97x-d3 def2-SVP def2/J RIJCOSX Grid4 TightSCF
%maxcore 5000
%tddft
    Mode sTDA
    Ethresh 5.0
    maxcore 5000
end

%pal
  nprocs 6
  end
* xyz 1 2
   C        0.40170         1.28536         0.70894
   C        1.55429         0.55470         0.79291
   C        1.57312        -0.83053         0.56843
   C        0.42067        -1.54643         0.28472
   C       -0.79813        -0.80453         0.25125
   C       -0.79156         0.60893         0.40701
   N       -1.96953        -1.45034         0.16737
   C       -3.09241        -0.76781         0.11943
   C       -3.04163         0.66340        -0.03233
   N       -1.92018         1.30441         0.18770
   F        2.71824         1.16846         1.07074
   F        2.77204        -1.44303         0.62042
   C        1.38391        -3.90036         0.31662
   C        1.04886        -5.18901        -0.10812
   C       -0.16257        -5.25288        -0.75235
   S       -0.92912        -3.69454        -0.78007
   C        0.41803        -2.96272         0.03095
   C       -4.34774        -1.48952         0.29940
   C       -4.46142        -2.80797        -0.13730
   C       -5.62999        -3.53728         0.01713
   C       -6.73893        -2.91951         0.63268
   C       -6.59509        -1.61602         1.11012
   C       -5.42811        -0.90470         0.95719
   C       -4.18727         1.46745        -0.45410
   C       -4.32692         2.76864         0.01426
   C       -5.40634         3.53447        -0.37831
   C       -6.36786         3.04654        -1.25784
   C       -6.20970         1.74254        -1.77488
   C       -5.12569         0.98124        -1.35853
   O       -7.46445         3.76689        -1.64166
   C       -7.61843         5.09605        -1.18544
   C       -8.89460         5.64416        -1.80565
   O       -7.02826         1.10205        -2.65041
   C       -8.04514         1.78332        -3.36569
   C       -8.60226         0.80279        -4.38700
   O       -7.96700        -3.44974         0.84765
   C       -8.34654        -4.72059         0.34609
   C       -9.83212        -4.88460         0.63133
   O       -5.77375        -4.83105        -0.41836
   C       -4.62352        -5.61009        -0.68494
   C       -3.82183        -5.93335         0.57024
   C       -0.80385        -6.41210        -1.33055
   C       -0.54239        -7.69730        -0.84634
   C       -1.17751        -8.79319        -1.38393
   C       -2.09791        -8.65913        -2.42798
   C       -2.34376        -7.37430        -2.92383
   C       -1.70980        -6.27773        -2.38558
   C       -2.77097        -9.81740        -2.97148
   S       -2.39260       -11.41932        -2.39626
   C       -3.53523       -12.12346        -3.46378
   C       -4.17221       -11.19058        -4.21756
   C       -3.73947        -9.88023        -3.93931
   H        0.40175         2.35332         0.84554
   H        2.30223        -3.67336         0.82494
   H        1.69675        -6.03723         0.02241
   H       -3.60281        -3.24500        -0.61839
   H       -7.44457        -1.18115         1.61232
   H       -5.35034         0.09123         1.36292
   H       -3.59473         3.16624         0.69797
   H       -5.50129         4.53256         0.01791
   H       -5.03172        -0.00785        -1.77754
   H       -6.75635         5.70419        -1.49207
   H       -7.69315         5.11445        -0.08940
   H       -8.82192         5.62141        -2.88958
   H       -9.05194         6.66826        -1.48005
   H       -9.74480         5.03919        -1.50288
   H       -7.63028         2.66299        -3.87056
   H       -8.83716         2.11140        -2.68384
   H       -7.81728         0.48766        -5.06901
   H       -9.40056         1.27368        -4.95346
   H       -8.99230        -0.07559        -3.88048
   H       -7.77494        -5.51200         0.84342
   H       -8.15598        -4.77582        -0.73065
   H      -10.01494        -4.82203         1.70059
   H      -10.17289        -5.84929         0.26661
   H      -10.39534        -4.09689         0.13828
   H       -3.98808        -5.12855        -1.43557
   H       -5.02611        -6.53014        -1.11827
   H       -3.39898        -5.02945         1.00151
   H       -3.01513        -6.61534         0.31777
   H       -4.46495        -6.40449         1.30996
   H        0.14737        -7.82821        -0.02673
   H       -0.97000        -9.77732        -0.98902
   H       -3.03414        -7.23597        -3.74079
   H       -1.89822        -5.29345        -2.78952
   H       -3.66454       -13.18749        -3.46629
   H       -4.92531       -11.42764        -4.94765
   H       -4.13903        -9.01778        -4.44056
*
