# ORCA input file
# SCF done       -154.841010240663          0.000562663676
! wb97x-d3 def2-SVP def2/J RIJCOSX Grid4 TightSCF
%maxcore 5000
%tddft
    Mode sTDA
    Ethresh 5.0
    maxcore 5000
end

%pal
  nprocs 6
  end
* xyz 1 2
   C        0.59743         1.54710        -0.00664
   C        1.77581         0.85489         0.06096
   C        1.82491        -0.54907         0.06577
   C        0.67464        -1.32025         0.00384
   C       -0.55663        -0.60382        -0.07639
   C       -0.59890         0.81395        -0.08660
   N       -1.69803        -1.29972        -0.09525
   C       -2.85709        -0.68175        -0.15056
   C       -2.88663         0.74833        -0.27733
   N       -1.77881         1.44912        -0.21125
   F        2.93845         1.52551         0.13167
   F        3.04068        -1.11942         0.15179
   C        1.69403        -3.65469         0.06719
   C        1.28881        -4.98879         0.16461
   C       -0.07594        -5.13055         0.24908
   S       -0.87293        -3.58106         0.17656
   C        0.64817        -2.75711         0.05963
   C       -4.04025        -1.52943        -0.03128
   C       -4.02264        -2.78440        -0.63947
   C       -5.06541        -3.68542        -0.50725
   C       -6.16864        -3.32477         0.29811
   C       -6.17722        -2.06183         0.89192
   C       -5.14369        -1.16583         0.73370
   C       -4.12101         1.49651        -0.51936
   C       -4.29829         2.74345         0.06715
   C       -5.46232         3.45284        -0.15326
   C       -6.47308         2.96388        -0.97519
   C       -6.28049         1.71983        -1.61389
   C       -5.11149         1.01194        -1.36630
   O       -7.64750         3.62794        -1.19216
   C       -7.85995         4.88532        -0.58173
   C       -9.23917         5.36767        -1.00415
   O       -7.13208         1.09013        -2.46414
   C       -8.28429         1.72747        -2.99002
   C       -8.87917         0.78270        -4.02377
   O       -7.26624        -4.07042         0.56090
   C       -7.30350        -5.46891         0.31316
   C       -8.54454        -6.00992         1.00732
   O       -5.08511        -4.91669        -1.10644
   C       -4.05191        -5.29265        -1.99435
   C       -4.18960        -4.64604        -3.36950
   C       -0.87450        -6.32520         0.37305
   C       -2.20097        -6.24420         0.81104
   C       -2.99221        -7.36370         0.91683
   C       -2.53584        -8.64965         0.59764
   C       -1.20773        -8.73024         0.16618
   C       -0.41476        -7.61119         0.06193
   C       -3.34989        -9.83864         0.69973
   S       -2.62357       -11.40966         0.46965
   C       -4.12596       -12.19055         0.73123
   C       -5.12739       -11.30582         0.97803
   C       -4.69045        -9.96837         0.96118
   F        0.84642        -7.78767        -0.38233
   F       -4.25346        -7.18005         1.36298
   H        0.57839         2.62358        -0.00742
   H        2.72653        -3.36658         0.00151
   H        1.98405        -5.80749         0.19066
   H       -3.16036        -3.02926        -1.23531
   H       -7.03417        -1.81200         1.49704
   H       -5.17657        -0.20925         1.23032
   H       -3.52882         3.14329         0.70734
   H       -5.58286         4.40796         0.33180
   H       -4.99470         0.06881        -1.87541
   H       -7.09198         5.59982        -0.90836
   H       -7.81200         4.78859         0.51154
   H       -9.28724         5.45872        -2.08580
   H       -9.44444         6.33505        -0.55519
   H       -9.99609         4.65763        -0.68255
   H       -8.01146         2.68005        -3.45780
   H       -9.00958         1.92304        -2.19283
   H       -8.16029         0.59704        -4.81723
   H       -9.77721         1.22012        -4.45030
   H       -9.12965        -0.16550        -3.55645
   H       -6.40465        -5.94641         0.71375
   H       -7.35554        -5.66154        -0.76375
   H       -8.48721        -5.81734         2.07526
   H       -8.62102        -7.08077         0.84196
   H       -9.43359        -5.52335         0.61502
   H       -4.16334        -6.37787        -2.08267
   H       -3.06660        -5.08617        -1.56021
   H       -5.15565        -4.89570        -3.80139
   H       -3.40442        -5.01408        -4.02400
   H       -4.11401        -3.56387        -3.30059
   H       -2.61804        -5.28706         1.08500
   H       -0.78610        -9.68767        -0.09883
   H       -4.17547       -13.26039         0.68598
   H       -6.14552       -11.59595         1.16686
   H       -5.35131        -9.13967         1.13195
*
