# ORCA input file
# SCF done       -501.374393593420          0.000316371812
! wb97x-d3 def2-SVP def2/J RIJCOSX Grid4 TightSCF
%maxcore 5000
%tddft
    Mode sTDA
    Ethresh 5.0
    maxcore 5000
end

%pal
  nprocs 6
  end
* xyz 1 2
   C       -1.59746         0.66605         1.21646
   C       -0.72416         0.55568         0.14888
   C       -0.81055        -0.67317        -0.48191
   C       -1.74302        -1.53547         0.08249
   S       -2.52956        -0.78282         1.44380
   C       -2.00690        -2.83621        -0.40750
   S       -1.12468        -3.34287        -1.83071
   C       -1.90949        -4.90202        -1.87210
   C       -2.79902        -5.01864        -0.81130
   C       -2.87293        -3.84455         0.00189
   C       -3.60202        -6.20034        -0.55512
   C       -4.64973        -6.02306         0.44476
   C       -4.69770        -4.86319         1.28091
   C       -3.80120        -3.72637         1.11142
   C       -5.61263        -6.94900         0.76136
   S       -6.57614        -6.40118         2.09304
   C       -5.66766        -4.93762         2.25154
   C       -1.64506        -5.73705        -2.98684
   C       -0.95551        -5.33310        -4.12152
   C       -0.94576        -6.27425        -5.14289
   S       -2.23661        -7.36252        -3.17708
   O       -3.40008        -7.27803        -1.11023
   O       -3.86742        -2.73421         1.83627
   C       -5.89983        -8.27240         0.14492
   C       -6.29733        -8.16911        -1.32911
   C       -5.92847        -3.96414         3.34169
   C       -6.88592        -4.48467         4.40315
   C       -1.77356         1.79101         2.06037
   C       -2.67147         1.93578         3.09861
   C       -2.56005         3.17919         3.71716
   C       -1.58965         3.99815         3.15493
   S       -0.79221         3.22880         1.83948
   S       -3.49764         3.95619         4.97966
   C       -2.62526         6.79230         5.14285
   C       -1.55817         5.31064         3.68058
   C       -1.76077         7.78938         5.38014
   C       -2.14699         7.57461         3.92474
   C       -1.42150         6.54489         3.13005
   C       -2.24763         5.34784         5.04199
   C       -2.62363         8.57426         2.99672
   C       -2.09507         8.46438         1.73099
   S       -1.08415         7.03767         1.49253
   S       -3.55024        10.01302         3.16550
   C       -3.24474        10.42336         1.51176
   C       -2.46065         9.51932         0.87053
   C       -0.97319         8.60761         6.17017
   C       -1.33317         5.04611         6.18181
   C       -0.17957         9.65800         5.75298
   C        0.52155        10.24811         6.81225
   C        0.27611         9.68567         8.04129
   S       -0.83603         8.37549         7.90081
   C        0.00745         4.82942         6.13380
   C       -0.34086         4.73050         8.44145
   S       -1.92553         5.02678         7.80926
   C       -0.11716         4.55393         9.90268
   C       -0.47632         3.13413        10.34668
   C        0.79307        10.12675         9.36463
   C       -0.10329        11.21475         9.96360
   C       -1.59769        -7.43796        -4.79251
   C        0.56103         4.64663         7.42370
  Cl        2.24102         4.36564         7.66845
  Cl        1.59094        11.57882         6.59688
   C       -9.30021        -9.22205        -4.30841
   C       -9.89771       -10.18239        -3.51565
   C      -10.20872        -9.70723        -2.25117
   C       -9.83887        -8.38581        -2.03556
   S       -9.13134        -7.70697        -3.47512
   C       -9.96205        -7.73138        -0.78404
   S      -10.66391        -8.65716         0.51684
   C      -10.41204        -7.38110         1.67437
   C       -9.84357        -6.27319         1.07012
   C       -9.56951        -6.47826        -0.31863
   C       -9.64933        -4.97587         1.72697
   C       -8.93889        -3.99291         0.90713
   C       -8.49762        -4.27501        -0.42687
   C       -8.89351        -5.48782        -1.13548
   C       -8.56137        -2.74429         1.33687
   S       -7.61331        -1.93535         0.13410
   C       -7.76918        -3.24977        -0.97803
   C      -10.72980        -7.68606         3.03035
   C      -10.16368        -7.24663         4.20596
   C      -10.63115        -7.92310         5.33302
   S      -11.88728        -8.95567         3.34118
   O      -10.03784        -4.73748         2.86100
   O       -8.67183        -5.65254        -2.33441
   C       -8.93563        -2.01986         2.57964
   C      -10.23274        -1.23523         2.35608
   C       -7.10454        -3.17637        -2.30558
   C       -5.67682        -3.72348        -2.22493
   C       -8.71047        -9.39727        -5.59006
   C       -8.21802        -8.41528        -6.41624
   C       -7.47037        -8.94317        -7.47216
   C       -7.39528       -10.34845        -7.46452
   S       -8.31710       -11.01361        -6.16856
   S       -6.43189        -8.19410        -8.65999
   C       -5.88985        -9.76772        -9.10806
   C       -6.48442       -10.79832        -8.42335
   C       -4.67041       -10.53701        -9.54099
   C       -3.71008       -10.60402        -8.36446
   C       -4.29482       -11.71958        -7.81740
   C       -5.42411       -11.81834        -8.80718
   C       -2.93941        -9.89546        -7.43880
   C       -2.95931       -10.53484        -6.18589
   S       -3.90542       -12.00223        -6.16215
   S       -2.13916        -8.36976        -7.34607
   C       -1.94801        -8.55353        -5.60544
   C       -2.39461        -9.77371        -5.15912
   C       -4.22507       -10.65524       -10.91814
   C       -5.73748       -13.01213        -9.57257
   C       -3.01426       -11.07973       -11.37774
   C       -3.01335       -11.26001       -12.77870
   C       -4.20419       -10.98693       -13.38620
   S       -5.37673       -10.50385       -12.20890
   C       -6.87546       -13.29037       -10.26907
   C       -5.52549       -15.06528       -10.96577
   S       -4.49072       -14.17470        -9.90239
   C       -5.03173       -16.27031       -11.68718
   C       -4.35273       -15.87707       -13.00140
   C       -4.56891       -11.12124       -14.82328
   C       -5.12562       -12.51717       -15.11397
   C      -11.57138        -8.88828         5.04650
   C       -6.74466       -14.45876       -11.05193
  Cl       -8.02324       -15.05978       -12.03544
  Cl       -1.62010       -11.78619       -13.64185
   C      -14.12343       -18.41374        13.83204
   C      -15.07300       -19.35665        13.48743
   C      -15.03827       -20.46858        14.31361
   C      -14.06189       -20.41085        15.29982
   S      -13.17539       -18.91568        15.19788
   C      -13.82507       -21.45057        16.23376
   S      -14.86857       -22.84824        16.14328
   C      -14.03880       -23.66790        17.44361
   C      -12.99768       -22.88092        17.91690
   C      -12.88038       -21.62554        17.23799
   C      -12.09945       -23.27531        18.99049
   C      -11.03841       -22.31580        19.28448
   C      -10.92749       -21.05868        18.60888
   C      -11.86273       -20.64529        17.56876
   C      -10.04821       -22.51151        20.21507
   S       -8.98813       -21.14542        20.27959
   C       -9.86913       -20.30403        19.05198
   C      -14.52522       -24.95589        17.79656
   C      -15.58181       -25.58131        17.15699
   C      -15.88563       -26.84046        17.67694
   S      -13.90513       -25.96712        19.07346
   O      -12.21532       -24.32946        19.60859
   O      -11.78240       -19.55037        17.01477
   C       -9.83688       -23.66049        21.13285
   C      -10.70804       -23.52044        22.38467
   C       -9.40770       -18.97111        18.58450
   C       -8.56765       -19.10258        17.31059
   C      -13.86413       -17.17918        13.17970
   C      -12.96406       -16.20707        13.55093
   C      -12.94593       -15.14598        12.64105
   C      -13.82632       -15.28887        11.57589
   S      -14.70794       -16.76794        11.69663
   S      -11.99824       -13.69388        12.52568
   C      -12.74446       -13.31651        10.98432
   C      -13.74017       -14.25472        10.61050
   C      -12.40208       -12.23088        10.18947
   C      -13.03281       -12.13378         8.93768
   C      -14.02908       -13.07153         8.56544
   C      -14.42876       -14.11047         9.39482
   C      -12.78098       -11.23748         7.86774
   C      -13.54917       -11.47889         6.73606
   S      -14.66667       -12.78954         6.95674
   S      -11.64787        -9.96462         7.58521
   C      -12.21013        -9.79871         5.93228
   C      -13.23185       -10.67115         5.64007
   C      -11.42891       -11.23708        10.60704
   C      -15.50061       -15.02217         9.03482
   C      -11.57737        -9.88151        10.59917
   C      -10.42703        -9.21041        11.06792
   C       -9.39939       -10.03430        11.42251
   S       -9.85651       -11.68738        11.19560
   C      -16.58302       -15.36326         9.79084
   C      -17.00936       -16.64813         7.89014
   S      -15.53154       -15.83839         7.50025
   C      -17.67601       -17.54636         6.90790
   C      -18.50830       -16.73886         5.90877
   C       -8.07139        -9.67705        11.99242
   C       -8.06248        -9.85830        13.51206
   C      -15.06202       -27.17428        18.71325
   C      -17.43329       -16.27800         9.13269
  Cl      -18.87400       -16.87928         9.85618
  Cl      -10.33915        -7.49447        11.16255
   H       -0.05832         1.34614        -0.15050
   H       -0.21540        -0.95196        -1.33426
   H       -0.50571        -4.35856        -4.20193
   H       -0.48629        -6.11997        -6.10344
   H       -6.69786        -8.75708         0.71245
   H       -4.99913        -8.88925         0.21265
   H       -7.08196        -7.43278        -1.47146
   H       -6.65499        -9.13372        -1.68017
   H       -5.43956        -7.88317        -1.93029
   H       -6.31252        -3.03937         2.90115
   H       -4.96633        -3.70026         3.79198
   H       -7.86342        -4.68973         3.97349
   H       -7.00646        -3.74648         5.19168
   H       -6.50269        -5.40247         4.84526
   H       -3.36917         1.16832         3.37812
   H       -3.67588        11.32135         1.11734
   H       -2.15535         9.59631        -0.15609
   H       -0.10992         9.97675         4.72924
   H        0.58670         4.79899         5.22916
   H       -0.72983         5.27172        10.45161
   H        0.93385         4.75208        10.12184
   H       -1.52234         2.92692        10.13377
   H       -0.30714         3.02090        11.41422
   H        0.13587         2.40774         9.81785
   H        1.80346        10.52049         9.23541
   H        0.83367         9.27326        10.04314
   H       -0.14371        12.07647         9.30217
   H        0.28913        11.53243        10.92571
   H       -1.11319        10.83712        10.10499
   H      -10.08695       -11.18780        -3.84880
   H      -10.67367       -10.30574        -1.48683
   H       -9.42184        -6.47291         4.24291
   H      -10.29342        -7.72599         6.33513
   H       -8.13948        -1.32713         2.86032
   H       -9.09676        -2.73884         3.38269
   H      -10.11731        -0.52869         1.53650
   H      -10.49147        -0.68620         3.25721
   H      -11.04472        -1.91846         2.12044
   H       -7.07460        -2.13733        -2.64024
   H       -7.67640        -3.77008        -3.01990
   H       -5.09760        -3.16316        -1.49265
   H       -5.18963        -3.64135        -3.19303
   H       -5.69189        -4.77161        -1.93448
   H       -8.35302        -7.36695        -6.22366
   H       -2.36465       -10.06560        -4.12561
   H       -2.16044       -11.25364       -10.74952
   H       -7.76785       -12.69406       -10.22495
   H       -5.87707       -16.92911       -11.89640
   H       -4.32037       -16.80527       -11.05543
   H       -5.06476       -15.38121       -13.65647
   H       -3.97170       -16.76096       -13.50613
   H       -3.52384       -15.19914       -12.80933
   H       -3.67913       -10.94944       -15.43255
   H       -5.31778       -10.36964       -15.07930
   H       -4.37174       -13.27170       -14.90333
   H       -5.41507       -12.59570       -16.15860
   H       -5.99785       -12.71201       -14.49362
   H      -15.75871       -19.23135        12.66762
   H      -15.69732       -21.31283        14.20761
   H      -16.11054       -25.12918        16.33583
   H      -16.67472       -27.46786        17.30235
   H       -8.78466       -23.70841        21.42031
   H      -10.11431       -24.58157        20.61695
   H      -10.49245       -22.58639        22.89954
   H      -10.51534       -24.34729        23.06242
   H      -11.75808       -23.53889        22.10596
   H       -8.81465       -18.49611        19.36843
   H      -10.27960       -18.35225        18.36489
   H       -7.71210       -19.75300        17.48059
   H       -8.20872       -18.12441        17.00290
   H       -9.17421       -19.51590        16.50932
   H      -12.35138       -16.27699        14.43043
   H      -13.71069       -10.72356         4.67968
   H      -12.47907        -9.37678        10.30541
   H      -16.78852       -14.95790        10.76421
   H      -18.32335       -18.23964         7.44857
   H      -16.92104       -18.12205         6.36906
   H      -19.27908       -16.17544         6.42909
   H      -18.98555       -17.40418         5.19413
   H      -17.87374       -16.04059         5.36778
   H       -7.85237        -8.63672        11.74453
   H       -7.30088       -10.31050        11.54813
   H       -8.81445        -9.22156        13.97190
   H       -7.08847        -9.59431        13.91556
   H       -8.27981       -10.89256        13.76894
   H      -15.07685       -28.07953        19.28827
*
