# ORCA input file
# SCF done       -254.673210238389          0.000628977535
! wb97x-d3 def2-SVP def2/J RIJCOSX Grid4 TightSCF
%maxcore 5000
%tddft
    Mode sTDA
    Ethresh 5.0
    maxcore 5000
end

%pal
  nprocs 6
  end
* xyz 1 2
   C       -8.04310         2.19679         4.30988
   C       -8.41489         1.16135         5.13235
   C       -9.03432         0.10434         4.44451
   C       -9.13224         0.32601         3.10559
   S       -8.46760         1.83757         2.65023
   C       -7.38608         3.43305         4.59605
   C       -7.17164         4.13094         5.77999
   C       -6.51197         5.36306         5.57129
   C       -6.20955         5.62361         4.26323
   S       -6.75836         4.32793         3.24108
   C       -7.56720         3.73973         7.14475
   O       -7.66783         4.82478         7.92716
   O       -7.75320         2.61771         7.55187
   C       -8.03620         4.60630         9.28778
   C       -9.54442         4.46957         9.44187
   C       -3.81287        10.24033         3.58280
   C       -3.91999        11.34308         2.76654
   C       -3.29050        12.47665         3.28271
   S       -2.92123        10.62017         5.02723
   C       -4.36670         8.93850         3.38765
   C       -4.60785         8.25923         2.20607
   C       -5.28900         7.04160         2.40149
   C       -5.55174         6.76344         3.71717
   S       -4.96476         8.03771         4.74925
   C       -4.14661         8.65148         0.85848
   O       -2.98705         9.31980         0.90386
   O       -4.72865         8.37147        -0.15946
   C       -2.42045         9.72076        -0.34356
   C       -1.59768         8.60123        -0.96443
   C       -0.80994        15.21060         6.20885
   C       -0.62129        14.07971         6.97242
   C       -1.26121        12.95090         6.46049
   C       -1.95143        13.18668         5.29138
   S       -1.81155        14.85267         4.81984
   C       -0.36061        16.55076         6.39336
   C        0.70528        17.09682         7.10235
   C        0.79639        18.49805         6.94857
   C       -0.17767        19.04176         6.15709
   S       -1.23639        17.80072         5.55247
   C        1.69683        16.38104         7.92314
   O        2.79918        17.12912         8.08098
   O        1.57320        15.28237         8.41035
   C        3.83629        16.58405         8.89467
   C        3.56261        16.81098        10.37489
   C       -2.68891        12.26206         4.50308
   C        0.33818        24.22279         5.63866
   C       -0.27942        25.45137         5.55849
   C        0.60070        26.52515         5.69336
   S        2.05856        24.41643         5.89104
   C       -0.19426        22.90161         5.58276
   C       -1.35978        22.37920         5.02998
   C       -1.44361        20.97603         5.16993
   C       -0.38525        20.41216         5.82774
   S        0.77399        21.62957         6.27593
   C       -2.42780        23.11468         4.33183
   O       -3.14723        22.27931         3.56741
   O       -2.66210        24.29724         4.41269
   C       -4.24932        22.84321         2.85856
   C       -5.47911        22.97123         3.74664
   C        4.62409        28.90053         6.24552
   C        5.25726        27.67887         6.22481
   C        4.37799        26.60203         6.10223
   C        3.05566        26.97978         6.02467
   S        2.89966        28.70920         6.12057
   C        5.20510        30.19593         6.40016
   C        6.44780        30.65143         5.99523
   C        6.72511        31.95921         6.43993
   C        5.70457        32.52403         7.15884
   S        4.36915        31.41677         7.31363
   C        7.39685        29.94707         5.10893
   O        6.76688        29.15488         4.23201
   O        8.59213        30.09975         5.14781
   C        7.58013        28.45518         3.29023
   C        7.89419        29.32050         2.07852
   C        1.91325        26.14736         5.87548
   C        6.85861        37.38718         8.71564
   C        6.42688        38.60288         9.18740
   C        7.44727        39.56692         9.24581
   C        8.64986        39.09534         8.81827
   S        8.56496        37.45510         8.33170
   C        6.15547        36.16334         8.49278
   C        4.91945        35.69675         8.92790
   C        4.65649        34.37612         8.49925
   C        5.65241        33.82269         7.74276
   S        6.96836        34.94393         7.55304
   C        3.93173        36.40048         9.76540
   O        3.14287        35.51632        10.39419
   O        3.79587        37.59577         9.87574
   C        2.12790        36.04834        11.24368
   C        2.67741        36.38535        12.62269
   H       -8.23591         1.16478         6.19011
   H       -9.39012        -0.78855         4.92641
   H       -9.55556        -0.31056         2.35398
   H       -6.26459         6.03463         6.37347
   H       -7.66350         5.48131         9.82450
   H       -7.53560         3.70259         9.65128
   H      -10.04454         5.34733         9.03953
   H       -9.79526         4.36705        10.49368
   H       -9.89340         3.58848         8.90884
   H       -4.46074        11.33005         1.83790
   H       -3.26966        13.43291         2.79041
   H       -5.55928         6.38880         1.59080
   H       -1.79630        10.58453        -0.10400
   H       -3.22760        10.01704        -1.02197
   H       -0.82751         8.27242        -0.27078
   H       -1.12752         8.95706        -1.87667
   H       -2.24080         7.75822        -1.20494
   H       -0.03762        14.08221         7.87278
   H       -1.22635        11.97978         6.92198
   H        1.55951        19.08803         7.42295
   H        4.74339        17.10236         8.57723
   H        3.92572        15.51257         8.68695
   H        3.43046        17.87150        10.57576
   H        4.39860        16.43936        10.96025
   H        2.66159        16.27956        10.67122
   H       -1.33656        25.55711         5.40850
   H        0.29880        27.55707         5.65843
   H       -2.27421        20.40206         4.80096
   H       -4.43092        22.15554         2.03004
   H       -3.95863        23.82581         2.47220
   H       -5.74427        22.00337         4.16552
   H       -6.31322        23.34602         3.16058
   H       -5.27930        23.66587         4.55883
   H        6.32228        27.57310         6.32202
   H        4.68544        25.57159         6.07182
   H        7.64735        32.46607         6.21854
   H        6.99308        27.57819         3.00869
   H        8.50749        28.14422         3.78296
   H        6.97321        29.66997         1.61800
   H        8.45814        28.74145         1.35294
   H        8.48714        30.18026         2.38078
   H        5.40884        38.78989         9.46933
   H        7.29228        40.57389         9.58940
   H        9.58580        39.61461         8.75768
   H        3.74861        33.85451         8.74291
   H        1.36980        35.26456        11.30279
   H        1.70540        36.94376        10.77570
   H        3.13576        35.50658        13.06990
   H        1.87028        36.73089        13.26201
   H        3.42442        37.17130        12.54243
*
