# ORCA input file
# SCF done       -661.644805694677          0.000991917940
! wb97x-d3 def2-SVP def2/J RIJCOSX Grid4 TightSCF
%maxcore 5000
%tddft
    Mode sTDA
    Ethresh 5.0
    maxcore 5000
end

%pal
  nprocs 6
  end
* xyz 1 2
   C       -4.86548        -1.92033         6.34394
   C       -4.50344        -1.56745         5.02809
   C       -3.15301        -1.26848         4.71630
   C       -2.12627        -1.29446         5.65399
   C       -2.49542        -1.60757         6.97809
   C       -3.84513        -1.90824         7.28900
   C       -5.34066        -1.46375         3.89265
   C       -4.67421        -1.14624         2.74368
   S       -2.95719        -0.93276         3.01752
   C       -1.66563        -1.67706         8.12140
   C       -2.32256        -2.04842         9.25882
   S       -4.03046        -2.31204         8.97503
   C       -6.21016        -2.32360         6.70472
   C       -0.75334        -1.03671         5.26978
   C       -6.89798        -2.01795         7.84568
   C       -8.15138        -2.65432         7.89145
   C       -8.43768        -3.46236         6.83087
   S       -7.12718        -3.41889         5.70741
   C       -0.29271        -0.11863         4.36813
   C        1.10578        -0.17963         4.21802
   C        1.73481        -1.13209         4.96334
   S        0.56367        -1.98745         5.90423
   C       -9.67565        -4.25317         6.58154
   C      -10.60572        -3.54607         5.59308
   C        3.19106        -1.42891         5.05845
   C        3.74396        -1.07075         6.43894
   C       -1.76159        -2.22279        10.55448
   S       -0.06306        -2.00467        10.81217
   C       -0.22118        -2.39729        12.50454
   C       -1.53905        -2.66021        12.81691
   C       -2.40146        -2.56223        11.72736
   C        0.92331        -2.41941        13.37266
   C        2.11836        -1.79604        13.03604
   C        3.24490        -1.79970        13.85907
   C        3.28145        -2.43427        15.09163
   C        2.07069        -3.07978        15.48478
   C        0.92207        -3.09571        14.63267
   N        1.99219        -3.63314        16.70183
   C        0.90261        -4.25501        17.07504
   C       -0.18369        -4.40272        16.16525
   N       -0.15304        -3.80281        15.00142
   C        4.45567        -2.43290        15.92542
   C       -1.37100        -5.21089        16.48864
   C        0.85621        -4.78432        18.44846
   C       -2.66184        -4.70495        16.31419
   C       -3.77917        -5.44204        16.65825
   C       -3.69089        -6.73816        17.20023
   C       -2.39635        -7.24037        17.36851
   C       -1.27908        -6.49319        17.01689
   C       -0.22675        -4.57295        19.29323
   C       -0.28849        -5.09900        20.57775
   C        0.75403        -5.87220        21.09879
   C        1.84964        -6.08131        20.24019
   C        1.90054        -5.55729        18.96232
   S        5.66329        -1.18090        15.79089
   C        6.02350        -3.02765        17.52642
   C        4.80918        -3.33908        16.89572
   F       -1.39846        -4.83516        21.29984
   F       -2.17917        -8.46948        17.88348
   C        6.58893        -1.88702        17.04268
   O       -4.85070        -7.33039        17.48893
   C       -4.89804        -8.64798        18.03143
   C       -6.36502        -8.99701        18.21199
   F       -4.99786        -4.91762        16.48047
   F        2.87073        -6.81896        20.69400
   O        0.84105        -6.43705        22.30423
   C       -0.18691        -6.27173        23.27846
   C        0.26787        -7.00662        24.52721
   F       -1.25700        -3.81536        18.88284
   F        2.95886        -5.83314        18.20052
   F       -2.83180        -3.47035        15.84059
   F       -0.07439        -7.06318        17.18320
   F        4.32942        -1.15764        13.39436
   F        2.23580        -1.14028        11.86851
   F       -9.00195        -2.48665         8.92213
   F        1.77186         0.64717         3.39079
   C      -14.22271        -4.65619        -9.92322
   C      -15.46346        -4.78913       -10.57612
   C      -16.59641        -4.07927       -10.10683
   C      -16.56955        -3.24703        -8.99152
   C      -15.34000        -3.15411        -8.30540
   C      -14.20483        -3.85236        -8.78888
   C      -15.77176        -5.59369       -11.69747
   C      -17.06468        -5.48225       -12.11803
   S      -17.98269        -4.36843       -11.12637
   C      -15.04661        -2.43341        -7.12207
   C      -13.74280        -2.53376        -6.72524
   S      -12.80548        -3.54434        -7.80266
   C      -13.01757        -5.29376       -10.41260
   C      -17.75016        -2.51498        -8.57982
   C      -12.00905        -5.86433        -9.68829
   C      -10.97074        -6.34046       -10.51160
   C      -11.14094        -6.13506       -11.84867
   S      -12.64935        -5.33467       -12.11712
   C      -19.04974        -2.93755        -8.60558
   C      -19.94133        -1.93830        -8.17136
   C      -19.36877        -0.74970        -7.82876
   S      -17.65483        -0.86129        -8.03328
   C      -10.24563        -6.52967       -12.97156
   C      -10.91927        -7.54231       -13.89831
   C      -20.02438         0.48233        -7.30866
   C      -19.63345         0.75200        -5.85478
   C      -13.12051        -1.96175        -5.57785
   S      -11.43000        -2.19563        -5.29473
   C      -11.50490        -1.30003        -3.80364
   C      -12.78620        -0.83927        -3.57955
   C      -13.69058        -1.20342        -4.57455
   C      -10.34075        -1.14522        -2.97651
   C       -9.05214        -1.27953        -3.48397
   C       -7.89851        -1.18085        -2.70731
   C       -7.93205        -0.94525        -1.33778
   C       -9.23795        -0.77815        -0.78471
   C      -10.42219        -0.88610        -1.57498
   N       -9.33691        -0.47626         0.51174
   C      -10.51086        -0.32809         1.07558
   C      -11.69095        -0.55430         0.31230
   N      -11.61527        -0.80285        -0.97313
   C       -6.77065        -0.90482        -0.50177
   C      -13.03012        -0.50413         0.92060
   C      -10.52455         0.10652         2.48200
   C      -14.06672         0.21978         0.32524
   C      -15.31143         0.31877         0.91751
   C      -15.61388        -0.29656         2.14686
   C      -14.57578        -1.02969         2.73141
   C      -13.32879        -1.12768         2.12678
   C      -11.30112         1.17012         2.92803
   C      -11.29781         1.60016         4.24974
   C      -10.47653         0.99714         5.20792
   C       -9.68713        -0.07214         4.74738
   C       -9.72411        -0.51895         3.44083
   S       -6.94807        -0.94859         1.22478
   C       -4.56887        -0.94075         0.23164
   C       -5.43378        -0.89486        -0.85854
   F      -12.11108         2.62876         4.56966
   F      -14.74199        -1.67022         3.90833
   C       -5.22859        -1.01104         1.44093
   O      -16.85182        -0.10701         2.60501
   C      -17.27992        -0.66377         3.84587
   C      -18.72304        -0.23462         4.04524
   F      -16.27539         1.02697         0.31571
   F       -8.87311        -0.66931         5.62646
   O      -10.34722         1.29535         6.50002
   C      -11.08136         2.35978         7.10187
   C      -10.67264         2.39629         8.56392
   F      -12.07971         1.83800         2.06065
   F       -9.01030        -1.59731         3.12058
   F      -13.85330         0.86490        -0.82181
   F      -12.40075        -1.87958         2.74096
   F       -6.73039        -1.34434        -3.34937
   F       -8.86979        -1.51677        -4.79378
   F       -9.88571        -6.95579       -10.00869
   F      -21.26902        -2.14639        -8.10236
   C      -17.07144       -19.30618       -21.67780
   C      -16.29547       -20.34400       -21.12987
   C      -15.59570       -20.14432       -19.91661
   C      -15.63515       -18.95323       -19.19539
   C      -16.38890       -17.90599       -19.75905
   C      -17.07894       -18.10185       -20.98081
   C      -16.08232       -21.65620       -21.64614
   C      -15.29405       -22.41190       -20.85574
   S      -14.74220       -21.58780       -19.44116
   C      -16.57027       -16.59393       -19.25936
   C      -17.38454       -15.81684       -20.02969
   S      -17.96189       -16.67170       -21.44527
   C      -17.85320       -19.46911       -22.88844
   C      -14.95267       -18.82154       -17.92462
   C      -18.02928       -18.57008       -23.90134
   C      -18.90222       -19.05604       -24.89423
   C      -19.41912       -20.29598       -24.66492
   S      -18.79817       -20.90679       -23.17033
   C      -13.73247       -19.32462       -17.56905
   C      -13.40671       -19.02749       -16.23206
   C      -14.35024       -18.32773       -15.53985
   S      -15.69613       -18.00462       -16.57460
   C      -20.34298       -21.09116       -25.52099
   C      -19.66352       -22.35095       -26.05947
   C      -14.29767       -17.82854       -14.13783
   C      -14.19865       -16.30249       -14.09462
   C      -17.76520       -14.46919       -19.77759
   S      -17.25102       -13.67694       -18.32842
   C      -18.09597       -12.21209       -18.76720
   C      -18.72074       -12.37205       -19.98890
   C      -18.53799       -13.63155       -20.55334
   C      -18.09580       -11.07095       -17.89629
   C      -17.30544       -11.01804       -16.75232
   C      -17.31175        -9.94930       -15.85814
   C      -18.12062        -8.83288       -16.01536
   C      -18.90792        -8.81337       -17.20560
   C      -18.90904        -9.91326       -18.11952
   N      -19.60618        -7.70920       -17.49780
   C      -20.32524        -7.65259       -18.59113
   C      -20.41837        -8.78911       -19.44256
   N      -19.70719        -9.86037       -19.19166
   C      -18.16283        -7.77145       -15.04768
   C      -21.27058        -8.81530       -20.64234
   C      -21.01261        -6.38455       -18.88682
   C      -20.75925        -9.24929       -21.86919
   C      -21.52843        -9.23355       -23.01707
   C      -22.86315        -8.78584       -23.02505
   C      -23.37048        -8.36054       -21.79285
   C      -22.59128        -8.38331       -20.64272
   C      -20.95591        -5.77647       -20.13500
   C      -21.63980        -4.60298       -20.42717
   C      -22.42432        -3.95862       -19.46497
   C      -22.46935        -4.57279       -18.19906
   C      -21.78807        -5.74199       -17.91854
   S      -16.82177        -7.47541       -13.97785
   C      -18.92760        -6.01564       -13.74108
   C      -19.19753        -6.89879       -14.78598
   F      -21.51758        -4.11342       -21.67949
   F      -24.63633        -7.90685       -21.67141
   C      -17.67361        -6.18458       -13.19582
   O      -23.48238        -8.82261       -24.20536
   C      -24.83838        -8.40602       -24.34841
   C      -25.20661        -8.60431       -25.80833
   F      -21.00041        -9.65255       -24.17334
   F      -23.20728        -3.99142       -17.24552
   O      -23.13430        -2.83707       -19.59468
   C      -23.17235        -2.11913       -20.82606
   C      -24.06474        -0.91074       -20.60318
   F      -20.20028        -6.31329       -21.10729
   F      -21.91168        -6.28027       -16.70510
   F      -19.49332        -9.65946       -21.95286
   F      -23.16718        -7.98939       -19.49484
   F      -16.50397       -10.05713       -14.78981
   F      -16.48395       -12.03707       -16.44336
   F      -19.20581       -18.33947       -25.99213
   F      -12.24290       -19.41392       -15.67806
   H       -6.40244        -1.62570         3.91018
   H       -0.61497        -1.45235         8.12126
   H       -6.55409        -1.34270         8.60634
   H       -0.90534         0.59976         3.85689
   H      -10.19226        -4.39260         7.53405
   H       -9.40752        -5.23476         6.18406
   H      -10.90085        -2.57421         5.98185
   H      -11.50228        -4.13835         5.43122
   H      -10.10637        -3.40618         4.63788
   H        3.70930        -0.85248         4.28918
   H        3.36163        -2.49159         4.86636
   H        3.60105        -0.01208         6.64275
   H        4.80685        -1.29231         6.48533
   H        3.23430        -1.64332         7.21075
   H       -1.85735        -2.89618        13.81169
   H       -3.46273        -2.72793        11.78144
   H        6.45983        -3.62661        18.30519
   H        4.22282        -4.20637        17.12206
   H        7.50643        -1.42103        17.34381
   H       -4.37570        -8.67541        18.99421
   H       -4.41684        -9.35355        17.34519
   H       -6.83780        -8.28297        18.88025
   H       -6.45412        -9.99423        18.63197
   H       -6.87608        -8.96489        17.25411
   H       -1.12709        -6.69315        22.90577
   H       -0.33357        -5.20711        23.49122
   H        0.42630        -8.05769        24.30350
   H       -0.48853        -6.91500        25.30075
   H        1.20177        -6.58538        24.88819
   H      -15.07193        -6.25168       -12.17874
   H      -15.77512        -1.86798        -6.57303
   H      -12.00895        -5.98140        -8.62101
   H      -19.36871        -3.92486        -8.88149
   H       -9.33512        -6.95862       -12.54780
   H       -9.97028        -5.64213       -13.54821
   H      -11.18804        -8.44137       -13.34860
   H      -10.24447        -7.81748       -14.70461
   H      -11.82315        -7.11717       -14.32941
   H      -21.10600         0.35258        -7.38527
   H      -19.73565         1.33866        -7.92381
   H      -19.93173        -0.08008        -5.22106
   H      -20.12276         1.65368        -5.49656
   H      -18.55678         0.88369        -5.77208
   H      -13.04150        -0.24332        -2.72646
   H      -14.72852        -0.92579        -4.56454
   H       -3.49632        -0.94950         0.14939
   H       -5.08823        -0.85537        -1.87436
   H      -16.65150        -0.28814         4.66101
   H      -17.20441        -1.75626         3.81259
   H      -18.79011         0.84951         4.06170
   H      -19.09544        -0.63066         4.98505
   H      -19.33832        -0.60671         3.23113
   H      -12.15682         2.17250         7.00795
   H      -10.84012         3.30720         6.60673
   H      -10.89014         1.44128         9.03457
   H      -11.21764         3.18218         9.07787
   H       -9.60626         2.58610         8.64728
   H      -16.49573       -22.00699       -22.57308
   H      -14.97858       -23.42435       -21.01516
   H      -16.10871       -16.21805       -18.36504
   H      -17.53824       -17.61751       -23.96756
   H      -13.06874       -19.84946       -18.22993
   H      -20.66855       -20.45993       -26.35054
   H      -21.22410       -21.37807       -24.94062
   H      -18.78917       -22.08763       -26.65036
   H      -20.35254       -22.90805       -26.68870
   H      -19.34780       -22.98962       -25.23728
   H      -13.42809       -18.27186       -13.64802
   H      -15.19547       -18.14667       -13.60150
   H      -13.30266       -15.96575       -14.61084
   H      -14.15440       -15.95972       -13.06437
   H      -15.06457       -15.85212       -14.57492
   H      -19.28266       -11.58547       -20.44951
   H      -18.94913       -13.93315       -21.50035
   H      -19.61966        -5.27320       -13.38537
   H      -20.12575        -6.92651       -15.32097
   H      -24.93750        -7.35192       -24.06633
   H      -25.48613        -9.00978       -23.70330
   H      -24.55548        -8.00796       -26.44101
   H      -26.23713        -8.30301       -25.96958
   H      -25.09200        -9.64924       -26.08200
   H      -23.58010        -2.75670       -21.61833
   H      -22.16151        -1.80389       -21.10742
   H      -25.06091        -1.23208       -20.31284
   H      -24.12821        -0.32981       -21.51821
   H      -23.65782        -0.28831       -19.81147
*
