# ORCA input file
# SCF done       -523.628814811338          0.000537829816
! wb97x-d3 def2-SVP def2/J RIJCOSX Grid4 TightSCF
%maxcore 5000
%tddft
    Mode sTDA
    Ethresh 5.0
    maxcore 5000
end

%pal
  nprocs 6
  end
* xyz 1 2
   C        7.52185        -1.12050        -8.78514
   C        7.04767        -0.33403        -9.85057
   C        7.21900         1.06889        -9.83183
   C        7.85022         1.75114        -8.79454
   C        8.28917         0.96699        -7.71008
   C        8.10556        -0.43765        -7.72483
   C        6.36153        -0.76512       -11.02441
   C        6.06083         0.24858       -11.86028
   S        6.57574         1.79506       -11.28234
   C        8.91446         1.40016        -6.51543
   C        9.22178         0.38745        -5.65548
   S        8.74072        -1.17738        -6.27965
   C        7.42741        -2.56739        -8.81879
   C        8.04258         3.18587        -8.84449
   C        7.70552        -3.40246        -9.86344
   C        7.51969        -4.76465        -9.55330
   C        7.09843        -4.97613        -8.27708
   S        6.92542        -3.47777        -7.42263
   C        7.17596         4.13691        -9.30698
   C        7.69148         5.44551        -9.23448
   C        8.95698         5.50438        -8.73697
   S        9.53609         3.92398        -8.33145
   C        6.75927        -6.26601        -7.61288
   C        5.24505        -6.43935        -7.47715
   C        9.80062         6.70358        -8.47451
   C        9.88546         7.00200        -6.97575
   C        9.85344         0.49620        -4.38527
   S       10.49501         2.00988        -3.84302
   C       11.03567         1.29993        -2.34148
   C       10.69990        -0.03914        -2.29926
   C       10.04841        -0.49102        -3.44362
   C       11.72271         2.07712        -1.35158
   C       11.92275         3.44659        -1.47816
   C       12.60522         4.21507        -0.53682
   C       13.09097         3.71075         0.66451
   C       12.84715         2.31568         0.86643
   C       12.27786         1.50178        -0.16559
   N       13.08265         1.74822         2.05087
   C       12.96777         0.45155         2.22948
   C       12.77814        -0.38160         1.07806
   N       12.35545         0.17728        -0.03371
   F       11.46656         4.10325        -2.56172
   F       12.75612         5.51942        -0.83616
   C       13.77637         4.53080         1.62188
   C       13.07103        -1.78843         1.01362
   C       12.99231        -0.01770         3.58969
   S       14.13071         6.21030         1.29466
   C       14.87850         5.22140         3.54714
   C       14.25625         4.17795         2.86777
   C       14.90732         6.39866         2.83080
   C       13.90084        -2.55762         1.78652
   C       13.96240        -3.88059         1.31906
   C       13.20803        -4.14723         0.21026
   S       12.39647        -2.71088        -0.29836
   C       13.03961        -5.44819        -0.49419
   C       11.59186        -5.93664        -0.43173
   F       14.71487        -4.81733         1.92278
   S       13.70253         0.99631         4.81149
   C       13.29650        -0.11877         6.06538
   C       12.62766        -1.18515         5.53185
   C       12.44891        -1.14919         4.13908
   C       13.63727         0.13247         7.49281
   C       12.93724         1.38372         8.02447
   F       12.17857        -2.20534         6.28389
   C       16.49241        11.14125         2.63959
   C       16.22029         9.84994         3.13465
   C       16.57826         9.50571         4.46104
   C       17.19055        10.38886         5.34353
   C       17.49520        11.66822         4.83536
   C       17.15315        12.00651         3.50248
   C       15.61114         8.76902         2.45359
   C       15.47380         7.64528         3.21553
   S       16.11231         7.86672         4.83331
   C       18.14757        12.73591         5.49572
   C       18.28529        13.85668         4.72944
   S       17.61891        13.64327         3.12367
   C       16.07951        11.53420         1.30773
   C       17.47625        10.00840         6.71187
   C       14.89156        11.28025         0.68167
   C       14.82017        11.81911        -0.61818
   C       15.95102        12.47519        -0.99512
   S       17.13427        12.45353         0.27117
   C       17.93014         8.80616         7.17797
   C       18.06518         8.76526         8.57949
   C       17.69880         9.92253         9.19484
   S       17.18732        11.10354         8.03674
   C       16.23028        13.19131        -2.27118
   C       16.23666        14.70715        -2.06373
   C       17.74526        10.26452        10.64382
   C       18.89124        11.23281        10.94593
   C       18.87331        15.09488         5.10860
   S       19.38734        15.36862         6.73990
   C       19.89397        16.99414         6.35842
   C       19.68452        17.26069         5.02018
   C       19.10875        16.20214         4.32230
   C       20.41534        17.87135         7.36685
   C       20.79729        17.42588         8.62684
   C       21.25513        18.27346         9.63491
   C       21.41224        19.64360         9.46704
   C       21.11117        20.13000         8.15828
   C       20.54003        19.27947         7.16025
   N       21.44272        21.37499         7.81264
   C       21.10853        21.87356         6.64297
   C       20.20827        21.12711         5.81255
   N       20.03760        19.84776         6.06277
   F       20.71740        16.11749         8.93464
   F       21.54682        17.69878        10.81693
   C       21.84219        20.51520        10.52209
   C       19.41807        21.66830         4.73948
   C       21.73471        23.11948         6.29053
   S       22.51657        19.89630        12.00679
   C       22.25478        22.44240        11.74812
   C       21.77433        21.89334        10.56219
   C       22.70163        21.49657        12.64566
   C       19.01335        22.95296         4.48796
   C       18.16947        23.01720         3.36701
   C       17.91333        21.82124         2.75537
   S       18.72599        20.55238         3.59791
   C       17.09056        21.56936         1.54002
   C       17.92563        20.96340         0.41173
   F       17.64985        24.17787         2.92945
   S       22.42563        24.07193         7.57213
   C       23.02650        25.24642         6.45833
   C       22.71445        24.87138         5.18078
   C       21.98432        23.67729         5.06418
   C       23.78915        26.44590         6.90185
   C       25.10856        26.05464         7.56885
   F       23.07236        25.59787         4.10710
   C       24.69060        20.63400        17.15848
   C       24.13709        21.31996        16.05837
   C       23.95226        22.72299        16.11409
   C       24.27180        23.49530        17.22554
   C       24.76869        22.79933        18.34661
   C       24.96472        21.39722        18.28667
   C       23.69540        20.77620        14.82817
   C       23.23029        21.71032        13.94882
   S       23.30703        23.33171        14.61235
   C       25.10953        23.32248        19.61634
   C       25.57904        22.38579        20.49062
   S       25.61743        20.78414        19.78239
   C       24.97339        19.21524        17.08870
   C       24.10797        24.93446        17.21491
   C       25.52218        18.51631        16.04991
   C       25.67543        17.14258        16.32145
   C       25.23701        16.78329        17.55855
   S       24.63395        18.15586        18.42789
   C       23.09770        25.66559        16.65465
   C       23.26889        27.05627        16.79671
   C       24.41453        27.39941        17.44635
   S       25.30619        25.99060        17.91326
   C       25.26786        15.44076        18.20330
   C       26.33960        15.37711        19.29346
   C       24.90577        28.75652        17.81458
   C       24.71940        29.02442        19.30988
   C       25.99835        22.58864        21.83450
   S       25.96979        24.16750        22.54728
   C       26.58740        23.54911        24.05616
   C       26.77709        22.18447        23.97625
   C       26.44984        21.64695        22.73384
   C       26.83219        24.40882        25.17904
   C       26.33969        25.70453        25.26019
   C       26.56659        26.54406        26.35270
   C       27.27683        26.15212        27.47788
   C       27.76914        24.81385        27.45117
   C       27.62334        23.99003        26.29200
   N       28.29858        24.27145        28.55032
   C       28.82855        23.06929        28.53161
   C       29.00248        22.41433        27.26668
   N       28.32314        22.85591        26.23129
   F       25.60569        26.21339        24.25313
   F       26.04925        27.78389        26.27631
   C       27.48983        27.01415        28.61064
   C       29.90915        21.33032        27.00036
   C       29.14281        22.50409        29.81674
   S       26.51001        28.43180        28.87779
   C       28.33958        27.89048        30.58389
   C       28.42109        26.88054        29.61322
   C       27.35177        28.79034        30.32240
   C       31.03193        20.91610        27.66769
   C       31.67277        19.86418        26.99291
   C       31.07728        19.46385        25.82868
   S       29.67587        20.42742        25.53127
   C       31.49809        18.36703        24.91357
   C       30.43009        17.27750        24.81311
   F       32.79694        19.29425        27.46234
   S       29.28854        23.59260        31.16554
   C       29.54322        22.28880        32.26859
   C       29.48281        21.09901        31.59719
   C       29.26057        21.19820        30.21384
   C       29.75989        22.50996        33.72516
   C       28.53906        23.15652        34.38077
   F       29.63405        19.91340        32.21377
   H        6.09385        -1.78913       -11.20918
   H        5.54738         0.19905       -12.80061
   H        9.12114         2.42786        -6.27913
   H        8.07250        -3.05342       -10.81237
   H        7.70046        -5.56083       -10.25406
   H        6.18327         3.91231        -9.65288
   H        7.13978         6.31545        -9.54431
   H        7.21325        -6.29793        -6.61955
   H        7.17173        -7.08553        -8.20540
   H        4.82737        -5.63318        -6.87843
   H        5.01476        -7.38668        -6.99611
   H        4.77309        -6.42229        -8.45695
   H        9.36702         7.55896        -8.99719
   H       10.80840         6.53834        -8.86360
   H        8.89226         7.17710        -6.56829
   H       10.49398         7.88562        -6.80109
   H       10.33218         6.16287        -6.44733
   H       10.93169        -0.66391        -1.45903
   H        9.71711        -1.50389        -3.58923
   H       15.30621         5.13087         4.52987
   H       14.14551         3.18819         3.26494
   H       14.45783        -2.20433         2.63374
   H       13.70135        -6.18066        -0.02727
   H       13.33487        -5.33576        -1.54074
   H       11.28058        -6.07145         0.60146
   H       11.49629        -6.88731        -0.94923
   H       10.93011        -5.21360        -0.90297
   H       11.92792        -1.91077         3.58996
   H       14.71887         0.25772         7.59178
   H       13.33774        -0.74014         8.07699
   H       13.23794         2.25682         7.44982
   H       13.19983         1.54359         9.06673
   H       11.85770         1.27499         7.95132
   H       15.30603         8.80554         1.42355
   H       18.52170        12.68664         6.50190
   H       14.07628        10.76101         1.15300
   H       13.95717        11.71837        -1.25241
   H       18.19748         7.98718         6.53499
   H       18.42122         7.90200         9.11359
   H       15.46422        12.92099        -3.00091
   H       17.20193        12.88021        -2.66298
   H       15.27293        15.04059        -1.68540
   H       16.43798        15.21641        -3.00289
   H       17.00414        14.98371        -1.34431
   H       17.87754         9.34485        11.21788
   H       16.80041        10.72399        10.94497
   H       19.84417        10.79099        10.66343
   H       18.91729        11.46750        12.00696
   H       18.76157        12.15786        10.38879
   H       19.94160        18.20064         4.57215
   H       18.86871        16.22915         3.27422
   H       22.27678        23.49667        11.95988
   H       21.38221        22.47591         9.75124
   H       19.28079        23.81078         5.07578
   H       16.65534        22.51707         1.21621
   H       16.27534        20.88473         1.78917
   H       18.73434        21.63538         0.13430
   H       17.30326        20.79083        -0.46210
   H       18.35432        20.01543         0.72851
   H       21.68788        23.25483         4.12259
   H       23.18581        27.01924         7.61054
   H       23.98374        27.07306         6.02937
   H       24.91988        25.43434         8.44209
   H       25.64674        26.94522         7.88204
   H       25.73382        25.49720         6.87538
   H       23.69342        19.72458        14.60507
   H       25.00018        24.35484        19.89420
   H       25.84712        18.97967        15.13546
   H       26.09526        16.44458        15.61873
   H       22.23653        25.22195        16.18878
   H       22.56389        27.77904        16.42558
   H       25.47254        14.68790        17.43925
   H       24.29327        15.22295        18.64706
   H       27.32126        15.57846        18.87042
   H       26.35327        14.39200        19.75308
   H       26.13656        16.11902        20.06249
   H       24.35283        29.49924        17.23539
   H       25.96587        28.84579        17.56451
   H       23.66821        28.95131        19.57922
   H       25.07463        30.02043        19.56164
   H       25.27675        28.29781        19.89667
   H       27.14082        21.60230        24.80060
   H       26.53138        20.60334        22.48677
   H       28.98797        27.94694        31.43963
   H       29.13770        26.08274        29.64107
   H       27.07122        29.65340        30.89316
   H       31.40187        21.34481        28.57997
   H       32.43104        17.94274        25.29049
   H       31.68521        18.77739        23.91759
   H       30.24005        16.84020        25.79045
   H       30.76135        16.49130        24.14014
   H       29.50112        17.69550        24.43228
   H       29.17190        20.34633        29.56622
   H       30.62899        23.15723        33.86931
   H       29.96824        21.54571        34.19335
   H       28.32906        24.11872        33.91915
   H       28.72167        23.30907        35.44109
   H       27.66515        22.51940        34.26735
*
