# ORCA input file
# SCF done       -365.051028850468          0.000491338989
! CAM-B3LYP def2-SVP def2/J RIJCOSX Grid4 TightSCF
%maxcore 5000
%tddft
    Mode sTDDFT
    Ethresh 5.0
    maxcore 5000
end

%pal
  nprocs 6
  end
* xyz 0 1
   C        7.08560        -0.16413       -12.66404
   O        6.07759         0.18907       -13.24270
   C        8.01082        -1.23279       -13.00415
   C        9.03084        -1.32177       -12.00321
   C        8.78279        -0.31732       -10.98705
   C        9.37219        -0.29346        -9.74501
   C       10.40875        -1.18435        -9.40585
   N       11.26930        -1.89173        -9.12886
   C        8.95270         0.54182        -8.69477
   N        8.61306         1.19831        -7.81600
   C        7.67717         0.48334       -11.45089
   C        7.14311         1.66628       -11.03010
   C        7.66824         2.71341       -10.24181
   S        6.46787         3.71458        -9.42099
   C        7.69262         4.78080        -8.85130
   C        8.95208         4.38347        -9.31510
   C        8.95718         3.21519       -10.08764
   C       10.19999         2.74120       -10.76878
   C       10.10596         2.86688       -12.29018
   S       10.23180         5.49352        -8.87742
   C        9.06037         6.49159        -8.08957
   C        7.75983         5.97652        -8.12928
   N        6.89593         6.83932        -7.51274
   C        5.47057         6.65280        -7.65256
   C        7.61885         7.94883        -7.11038
   C        8.98109         7.75127        -7.47991
   C        9.94452         8.77756        -7.35845
   N       11.23082         8.74463        -7.66789
   S       11.84889        10.22465        -7.44997
   N       10.49694        10.96674        -6.95831
   C        9.51492        10.07958        -6.93915
   C        8.17347        10.25812        -6.53461
   C        7.24477         9.17811        -6.50626
   N        6.06114         9.63400        -5.94626
   C        4.99706         8.89504        -5.30011
   C        5.54223         7.89457        -4.28536
   C        6.21295        10.97023        -5.68657
   C        7.49549        11.38944        -6.05961
   S        7.75674        13.08791        -5.87956
   C        6.10939        13.25348        -5.32036
   C        5.42630        12.03201        -5.23223
   S        3.81383        12.25610        -4.66282
   C        4.04338        14.00646        -4.64418
   C        5.32495        14.37283        -5.03081
   C        5.82066        15.77877        -5.05586
   C        6.04729        16.30212        -3.63623
   C        2.94605        14.86529        -4.42483
   C        1.83269        14.67021        -3.66051
   C        1.59065        13.82531        -2.51276
   C        2.51568        13.23602        -1.68644
   C        2.12150        12.47957        -0.56598
   N        1.81571        11.84306         0.33932
   C        3.90907        13.38658        -1.80197
   N        5.04880        13.52916        -1.82010
   C        0.16820        13.90140        -2.23007
   C       -0.44765        14.78938        -3.16575
   C        0.57874        15.39515        -4.01649
   O        0.46480        16.27822        -4.83801
   C        4.86395         7.66053        -8.62588
   C       -1.79302        14.95475        -2.97339
   S       -2.29817        14.03030        -1.57192
   C       -0.70540        13.42096        -1.30377
   C        9.92883        -2.31320       -12.24078
   S        9.55251        -3.15244       -13.70348
   C        8.13944        -2.15555       -14.01425
   C        7.34604        -2.35140       -15.17307
   S        5.97551        -1.33562       -15.53295
   C        5.69402        -2.19099       -16.98576
   C        6.58870        -3.20265       -17.18736
   C        7.53180        -3.29833       -16.15809
   C       -3.19373        14.68579        -8.60151
   O       -2.38533        14.13756        -7.87770
   C       -4.10458        15.77560        -8.29141
   C       -4.88680        16.09318        -9.44614
   C       -4.54713        15.16524       -10.51143
   C       -5.33151        14.92759       -11.61297
   C       -6.41743        15.76236       -11.93875
   N       -7.29170        16.44797       -12.22697
   C       -5.19179        13.79799       -12.43702
   N       -5.13576        12.85588       -13.09165
   C       -3.43001        14.37560       -10.04156
   C       -2.61763        13.44719       -10.62160
   C       -2.34956        13.08387       -11.96051
   S       -1.87960        11.39755       -12.17396
   C       -1.62747        11.65312       -13.85423
   C       -1.84927        12.99108       -14.20684
   C       -2.26543        13.80787       -13.14413
   C       -2.40172        15.29463       -13.24802
   C       -3.32791        15.74181       -14.37875
   S       -1.51384        13.30617       -15.89675
   C       -1.08792        11.64331       -16.10972
   C       -1.21012        10.88331       -14.94252
   N       -0.84607         9.58730       -15.18270
   C       -0.61381         8.69425       -14.07106
   C       -0.46079         9.49395       -16.50887
   C       -0.59181        10.78485       -17.10151
   C       -0.16574        11.04712       -18.42239
   N       -0.20387        12.18898       -19.09104
   S        0.48483        11.95966       -20.53747
   N        0.86164        10.39504       -20.36575
   C        0.45621         9.99473       -19.17078
   C        0.53175         8.70403       -18.60223
   C        0.01341         8.41779       -17.30528
   N        0.14775         7.05749       -17.07380
   C       -0.56302         6.19072       -16.15775
   C       -2.07458         6.33699       -16.30950
   C        0.75235         6.50740       -18.17188
   C        1.01361         7.49583       -19.12552
   S        1.79055         6.89616       -20.54817
   C        1.76449         5.28510       -19.86366
   C        1.18776         5.24602       -18.58682
   S        1.25067         3.66220       -17.92113
   C        1.98123         3.04058       -19.39923
   C        2.20889         4.04237       -20.33658
   C        2.98679         3.88588       -21.60628
   C        2.25151         4.42941       -22.83163
   C        2.31548         1.66564       -19.38628
   C        2.36131         0.75664       -20.40121
   C        1.80416         0.77460       -21.73856
   C        0.72064         1.48655       -22.18354
   C        0.24016         1.33849       -23.49992
   N       -0.14441         1.23978       -24.57664
   C       -0.04661         2.35094       -21.38149
   N       -0.72680         3.03404       -20.75760
   C        2.43159        -0.31151       -22.46767
   C        3.20483        -1.10140       -21.55381
   C        3.12673        -0.50775       -20.21290
   O        3.60003        -0.91746       -19.17563
   C        0.87664         8.44333       -13.85537
   C        3.79371        -2.17243       -22.14355
   S        3.42141        -2.22654       -23.82689
   C        2.45135        -0.80214       -23.73555
   C       -5.80903        17.06462        -9.20911
   S       -5.74797        17.59597        -7.56604
   C       -4.45649        16.47995        -7.16514
   C       -3.96172        16.32661        -5.84187
   S       -2.51092        15.42527        -5.54128
   C       -2.72211        15.61805        -3.83430
   C       -3.86017        16.33219        -3.52885
   C       -4.54508        16.75811        -4.66506
   H        6.15008         1.85913       -11.43151
   H       10.41705         1.70482       -10.50277
   H       11.02977         3.35367       -10.40896
   H        9.29062         2.26597       -12.68548
   H       11.03457         2.53251       -12.74555
   H        9.93665         3.90372       -12.57131
   H        4.98414         6.69268        -6.67786
   H        5.32630         5.64277        -8.04407
   H        4.35738         8.40987        -6.03949
   H        4.38060         9.63356        -4.78117
   H        4.72057         7.35810        -3.81865
   H        6.09803         8.41701        -3.51027
   H        6.20963         7.17609        -4.75528
   H        5.09458        16.41748        -5.56536
   H        6.76031        15.80612        -5.61075
   H        5.11000        16.32598        -3.08544
   H        6.46060        17.30665        -3.67044
   H        6.73770        15.65530        -3.10175
   H        2.93118        15.76944        -5.02944
   H        5.04802         8.68195        -8.30155
   H        3.79151         7.50275        -8.70133
   H        5.30313         7.53246        -9.61249
   H       -0.53326        12.75201        -0.48428
   H       10.78863        -2.60913       -11.67371
   H        4.88450        -1.89413       -17.62365
   H        6.57055        -3.85339       -18.04307
   H        8.32548        -4.02414       -16.12360
   H       -2.04763        12.87701        -9.88919
   H       -1.40355        15.70368       -13.43827
   H       -2.74388        15.69962       -12.29555
   H       -2.90584        15.48057       -15.34526
   H       -3.45845        16.82054       -14.34033
   H       -4.30426        15.27152       -14.29821
   H       -1.16596         7.76442       -14.20552
   H       -1.02628         9.18553       -13.18650
   H       -0.23902         6.36310       -15.13138
   H       -0.27534         5.16846       -16.41457
   H       -2.39388         7.36193       -16.13519
   H       -2.58177         5.68496       -15.60359
   H       -2.37400         6.05508       -17.31617
   H        3.24701         2.83760       -21.75568
   H        3.92169         4.44432       -21.49113
   H        1.26041         3.99373       -22.92648
   H        2.81694         4.19991       -23.73145
   H        2.13830         5.50766       -22.76190
   H        2.61171         1.27147       -18.41709
   H        1.34084         8.03066       -14.74794
   H        1.02035         7.75054       -13.03066
   H        1.37803         9.37764       -13.61363
   H        4.41475        -2.92788       -21.70569
   H        1.97762        -0.42671       -24.62041
   H       -6.52160        17.50821        -9.87558
   H       -4.16815        16.54455        -2.52053
   H       -5.45113        17.33782        -4.64535
*
