# ORCA input file
# SCF done       -365.073063614572          0.000969435339
! CAM-B3LYP def2-SVP def2/J RIJCOSX Grid4 TightSCF
%maxcore 5000
%tddft
    Mode sTDDFT
    Ethresh 5.0
    maxcore 5000
end

%pal
  nprocs 6
  end
* xyz 0 1
   C       13.22376        -4.56568        13.05330
   O       12.34408        -4.92564        12.28823
   C       13.22212        -3.40817        13.93049
   C       14.41233        -3.31531        14.64411
   C       15.26855        -4.42541        14.26499
   C       16.52734        -4.63564        14.76656
   C       17.09914        -3.76332        15.71651
   N       17.58471        -3.06941        16.49082
   C       17.39109        -5.69367        14.42405
   N       18.14414        -6.53044        14.19376
   C       14.53066        -5.21048        13.29142
   C       14.98407        -6.37133        12.72109
   C       14.38508        -7.24307        11.80292
   S       12.80244        -6.99326        11.06758
   C       12.95211        -8.48169        10.21294
   C       14.16658        -9.12964        10.49235
   C       14.98650        -8.43840        11.37603
   C       16.30233        -8.96974        11.84269
   C       16.14612        -9.72257        13.16685
   S       14.34665       -10.66931         9.66966
   C       12.78508       -10.43716         8.96240
   C       12.16864        -9.23961         9.33753
   N       10.95064        -9.12965         8.72657
   C       10.21596        -7.89633         8.89004
   C       10.73930       -10.26849         7.97167
   C       11.90361       -11.09030         8.09322
   C       12.05287       -12.30760         7.39413
   N       13.07944       -13.14353         7.39885
   S       12.74237       -14.37257         6.40057
   N       11.27239       -13.88606         5.92702
   C       10.99575       -12.74262         6.53421
   C        9.81976       -11.96550         6.45698
   C        9.65468       -10.74247         7.17865
   N        8.36812       -10.29069         6.94690
   C        7.59461        -9.18143         7.45356
   C        7.55211        -8.02325         6.45686
   C        7.75209       -11.16911         6.10001
   C        8.62021       -12.21650         5.77916
   S        7.90747       -13.42854         4.77212
   C        6.40666       -12.52265         4.78560
   C        6.48714       -11.34002         5.53345
   S        4.97631       -10.52330         5.54882
   C        4.24493       -11.77175         4.51919
   C        5.15248       -12.79029         4.22252
   C        4.88316       -14.08466         3.53736
   C        3.81206       -14.91052         4.24876
   C        2.87109       -11.54640         4.30929
   C        1.96283       -12.01481         3.39926
   C        0.52734       -11.82954         3.54713
   C       -0.16567       -11.16923         4.52844
   C       -1.57489       -11.09374         4.51258
   N       -2.71966       -11.01470         4.52371
   C        0.37763       -10.49508         5.63991
   N        0.73212        -9.92918         6.57496
   C       -0.10036       -12.52952         2.44327
   C        0.88905       -13.06180         1.62412
   C        2.21827       -12.70650         2.11210
   O        3.28262       -12.84118         1.53968
   C        9.43487        -7.86891        10.20432
   S        0.24334       -13.91971         0.29297
   C       -1.38116       -13.57796         0.84853
   C       -1.39387       -12.81839         2.00148
   C       14.44989        -2.21397        15.50542
   C       13.28465        -1.47683        15.44085
   S       12.13278        -2.14451        14.30574
   C       12.96622        -0.29897        16.17652
   S       14.09876         0.38128        17.31126
   C       13.00195         1.64082        17.69615
   C       11.83650         1.54878        16.99850
   C       11.81160         0.44483        16.13115
   C      -10.09880       -14.24603         0.07324
   O      -10.65138       -13.45775         0.82223
   C       -8.67201       -14.39123        -0.15754
   C       -8.41157       -15.37196        -1.10905
   C       -9.67860       -15.93480        -1.54755
   C       -9.79787       -16.91663        -2.49806
   C       -8.66476       -17.46025        -3.13769
   N       -7.75273       -17.91548        -3.66503
   C      -11.00209       -17.48833        -2.95111
   N      -11.94676       -17.99533        -3.36440
   C      -10.72226       -15.25898        -0.79788
   C      -12.06045       -15.55772        -0.86606
   C      -13.15700       -15.00906        -0.19144
   S      -13.06664       -13.64509         0.92448
   C      -14.76484       -13.73328         1.18894
   C      -15.36039       -14.77637         0.45989
   C      -14.47000       -15.49252        -0.33003
   C      -14.88197       -16.66787        -1.15476
   C      -14.64661       -17.97525        -0.39312
   S      -17.08833       -14.92168         0.73428
   C      -16.99788       -13.58212         1.82675
   C      -15.70940       -13.05113         1.95985
   N      -15.72175       -11.99886         2.83398
   C      -14.47125       -11.51005         3.37244
   C      -17.01810       -11.84193         3.28921
   C      -17.82943       -12.84732         2.68159
   C      -19.18517       -13.02912         3.03558
   N      -20.04254       -13.92975         2.58267
   S      -21.44189       -13.75107         3.37743
   N      -21.00697       -12.51568         4.32947
   C      -19.75140       -12.19837         4.05712
   C      -18.97033       -11.15255         4.59793
   C      -17.62824       -10.91442         4.17536
   N      -17.17893        -9.75969         4.79115
   C      -16.07882        -8.88287         4.45350
   C      -16.16490        -8.41191         3.00421
   C      -18.18595        -9.29253         5.59130
   C      -19.29736       -10.13994         5.50858
   S      -20.62789        -9.64382         6.49636
   C      -19.67938        -8.26599         7.02597
   C      -18.39799        -8.21174         6.45210
   S      -17.50597        -6.84103         6.99372
   C      -18.86395        -6.34064         8.00275
   C      -19.95471        -7.21997         7.89750
   C      -21.23661        -7.11697         8.65734
   C      -21.09038        -7.73204        10.05200
   C      -18.87309        -5.20613         8.82217
   C      -17.91663        -4.25160         9.05631
   C      -18.07964        -3.12145         9.95445
   C      -19.16206        -2.78342        10.72594
   C      -19.15221        -1.63888        11.55047
   N      -19.16756        -0.71332        12.22880
   C      -20.37787        -3.48909        10.80690
   N      -21.39407        -4.01332        10.92176
   C      -16.84255        -2.36374         9.90357
   C      -15.96923        -2.99118         9.02597
   C      -16.57315        -4.18685         8.45076
   O      -16.07929        -4.95702         7.64586
   C      -14.29186       -11.92137         4.83133
   S      -14.47577        -2.17169         8.89334
   C      -15.02572        -0.98547        10.01782
   C      -16.29169        -1.20150        10.47676
   C       -7.04495       -15.54750        -1.35098
   C       -6.27952       -14.70227        -0.56841
   S       -7.25318       -13.67462         0.45881
   C       -4.85935       -14.61015        -0.50415
   S       -4.11143       -13.64406         0.73081
   C       -2.52577       -14.07198         0.16376
   C       -2.60103       -14.90919        -0.92890
   C       -3.91050       -15.21570        -1.30222
   H       15.96732        -6.69383        13.03684
   H       17.02924        -8.16568        11.96625
   H       16.67962        -9.65867        11.08441
   H       15.76766        -9.06178        13.94335
   H       17.10913       -10.11132        13.48505
   H       15.45430       -10.55345        13.04975
   H        9.57619        -7.73239         8.02758
   H       10.95198        -7.08610         8.91239
   H        7.97663        -8.87253         8.42092
   H        6.57331        -9.54651         7.60531
   H        7.02728        -7.17883         6.89440
   H        7.02411        -8.32674         5.55657
   H        8.55317        -7.70797         6.16887
   H        5.81649       -14.65017         3.50274
   H        4.56356       -13.88810         2.50991
   H        4.10655       -15.11094         5.27695
   H        3.67901       -15.85913         3.73539
   H        2.85782       -14.38926         4.26037
   H        2.46141       -10.85256         5.03669
   H        8.82209        -8.76027        10.32588
   H        8.79636        -6.99070        10.23529
   H       10.12325        -7.81700        11.04328
   H       -2.30343       -12.50830         2.48226
   H       15.26826        -1.95009        16.14989
   H       13.28492         2.37925        18.41970
   H       11.02479         2.24587        17.10181
   H       10.98192         0.19625        15.49347
   H      -12.32763       -16.36224        -1.53851
   H      -14.33611       -16.69464        -2.09908
   H      -15.94651       -16.57228        -1.37715
   H      -13.59272       -18.09717        -0.15364
   H      -14.96178       -18.81811        -1.00153
   H      -15.21604       -17.98036         0.53340
   H      -14.39321       -10.43055         3.24446
   H      -13.67716       -11.96139         2.77306
   H      -15.12368        -9.36303         4.66548
   H      -16.15615        -8.01830         5.11712
   H      -16.16259        -9.25167         2.31286
   H      -15.32226        -7.76510         2.77628
   H      -17.08295        -7.84931         2.85140
   H      -22.00459        -7.66309         8.10604
   H      -21.55637        -6.07824         8.75124
   H      -20.80922        -8.77978         9.97538
   H      -22.03325        -7.66060        10.58636
   H      -20.32921        -7.20871        10.62591
   H      -19.80304        -5.07548         9.35950
   H      -15.10262       -11.54766         5.45261
   H      -13.34995       -11.53416         5.20972
   H      -14.27558       -13.00588         4.91093
   H      -14.36898        -0.17971        10.28166
   H      -16.78840        -0.56088        11.18136
   H       -6.62322       -16.25437        -2.04017
   H       -1.72818       -15.28784        -1.43051
   H       -4.16086       -15.85436        -2.12930
*
