# ORCA input file
# SCF done       -547.074035522171          0.000714201417
! CAM-B3LYP def2-SVP def2/J RIJCOSX Grid4 TightSCF
%maxcore 5000
%tddft
    Mode sTDDFT
    Ethresh 5.0
    maxcore 5000
end

%pal
  nprocs 6
  end
* xyz 0 1
   C       -3.61120       -28.50939       -13.70937
   O       -3.97798       -27.45012       -14.16249
   C       -3.36330       -29.77699       -14.41394
   C       -3.01257       -30.74578       -13.47795
   C       -3.03826       -30.22523       -12.14243
   C       -3.04968       -30.99539       -11.00315
   C       -2.84913       -32.38799       -11.07802
   N       -2.66601       -33.51988       -11.13361
   C       -3.34951       -30.52991        -9.71188
   N       -3.64272       -30.22488        -8.64406
   C       -3.26806       -28.79533       -12.28233
   C       -3.17066       -27.76676       -11.40040
   C       -2.57134       -27.73258       -10.11578
   S       -3.33115       -26.68976        -8.91785
   C       -2.17296       -27.16388        -7.73586
   C       -1.21484       -28.02588        -8.28051
   C       -1.43261       -28.35496        -9.62792
   C       -0.47633       -29.16787       -10.43971
   C        0.92319       -28.55145       -10.43774
   S       -0.01118       -28.53332        -7.11791
   C       -0.81241       -27.59499        -5.90775
   C       -1.94758       -26.92722        -6.37557
   N       -2.52790       -26.21763        -5.36013
   C       -3.49876       -25.19317        -5.67400
   C       -1.76581       -26.41094        -4.21944
   C       -0.66798       -27.25555        -4.55503
   C        0.36168       -27.54793        -3.63376
   N        1.44779       -28.28270        -3.81480
   S        2.33380       -28.23015        -2.46133
   N        1.36520       -27.26824        -1.59075
   C        0.31231       -26.95533        -2.32953
   C       -0.81723       -26.18635        -1.97295
   C       -1.89597       -25.96267        -2.87772
   N       -2.89629       -25.28591        -2.20023
   C       -4.30165       -25.14229        -2.50828
   C       -4.96970       -26.49805        -2.72211
   C       -2.46073       -25.06717        -0.92160
   C       -1.17582       -25.59200        -0.75490
   S       -0.52776       -25.34671         0.82835
   C       -1.99854       -24.51534         1.28452
   C       -2.93947       -24.46942         0.24726
   S       -4.39181       -23.70037         0.75309
   C       -3.68812       -23.35560         2.33121
   C       -2.40863       -23.87761         2.46510
   C       -1.62790       -23.92079         3.74219
   C       -0.19007       -23.42448         3.59086
   C       -4.53366       -22.68090         3.24595
   C       -4.24571       -21.75051         4.19529
   C       -3.07110       -20.93412         4.43439
   C       -2.07542       -20.58699         3.55571
   C       -1.02863       -19.72770         3.94661
   N       -0.16068       -19.04423         4.25745
   C       -2.04391       -20.94416         2.19558
   N       -1.99300       -21.14868         1.06687
   C       -3.29098       -20.30079         5.70799
   C       -4.57635       -20.53237         6.18019
   C       -5.25953       -21.43418         5.24216
   O       -6.38752       -21.87704         5.28747
   C       -2.91706       -23.79411        -5.48755
   C       -4.86712       -19.79068         7.35628
   C       -3.76624       -19.04667         7.72731
   S       -2.41047       -19.20549         6.68777
   S       -2.74490       -32.27782       -14.19900
   C       -3.09066       -31.60408       -15.77951
   C       -3.40846       -30.26159       -15.72142
   C       -3.03507       -32.43555       -16.93381
   S       -3.35513       -31.79022       -18.52027
   C       -3.09327       -33.32749       -19.23209
   C       -2.77966       -34.28041       -18.31191
   C       -2.74541       -33.77738       -17.00141
   C      -12.29089       -17.37274        11.79764
   O      -13.23275       -18.12460        11.88837
   C      -10.95015       -17.63524        11.23869
   C      -10.15475       -16.50864        11.43312
   C      -10.87396       -15.47325        12.11042
   C      -10.31926       -14.39824        12.76242
   C       -8.94478       -14.11597        12.66070
   N       -7.82818       -13.87049        12.55580
   C      -11.05623       -13.55337        13.61267
   N      -11.63903       -12.88092        14.33848
   C      -12.25572       -15.92420        12.15536
   C      -13.40922       -15.20942        12.25841
   C      -13.59161       -13.82819        12.01993
   S      -12.42505       -12.94399        11.03379
   C      -13.42750       -11.54561        11.05753
   C      -14.59760       -11.76586        11.79365
   C      -14.70302       -13.05505        12.32981
   C      -15.82172       -13.50301        13.20739
   C      -15.41364       -13.39694        14.67911
   S      -15.66342       -10.37713        11.81203
   C      -14.53076        -9.51914        10.82454
   C      -13.38782       -10.26200        10.51077
   N      -12.53703        -9.52404         9.73424
   C      -11.15075        -9.93030         9.63690
   C      -13.12571        -8.28614         9.52921
   C      -14.37085        -8.26119        10.22351
   C      -15.17359        -7.10013        10.27260
   N      -16.32995        -6.92271        10.89234
   S      -16.79681        -5.38835        10.67792
   N      -15.54472        -4.89124         9.78176
   C      -14.71451        -5.90952         9.61881
   C      -13.51686        -5.95772         8.87161
   C      -12.74238        -7.15074         8.76859
   N      -11.69279        -6.91246         7.89751
   C      -10.84388        -7.83141         7.17321
   C      -11.66455        -8.80900         6.33555
   C      -11.78478        -5.61386         7.47992
   C      -12.89069        -4.99144         8.07011
   S      -13.07817        -3.33433         7.61147
   C      -11.64491        -3.46781         6.61714
   C      -11.07372        -4.74598         6.65065
   S       -9.64619        -4.82265         5.69071
   C       -9.81023        -3.11653         5.26990
   C      -10.95444        -2.55118         5.81508
   C      -11.33298        -1.11636         5.66987
   C      -10.48402        -0.24050         6.59426
   C       -8.85911        -2.50592         4.42022
   C       -7.55511        -2.86588         4.26466
   C       -6.71303        -3.71028         5.09261
   C       -6.77433        -3.90938         6.44944
   C       -5.83887        -4.72762         7.11151
   N       -5.09773        -5.41472         7.65574
   C       -7.69975        -3.26972         7.29617
   N       -8.40468        -2.72218         8.01841
   C       -5.60655        -4.08405         4.25655
   C       -5.60220        -3.37409         3.06283
   C       -6.79301        -2.50701         3.03498
   O       -7.13423        -1.70215         2.19529
   C      -10.24111        -9.02378        10.46140
   C       -4.47432        -3.68526         2.25531
   C       -3.68796        -4.62602         2.88969
   S       -4.25775        -5.12294         4.42824
   S       -8.57758       -16.70594        10.80107
   C       -9.00302       -18.30171        10.21437
   C      -10.29744       -18.65730        10.54955
   C       -8.07656       -19.03564         9.42064
   S       -6.46571       -18.44145         9.14971
   C       -6.12807       -19.74001         8.04342
   C       -7.20712       -20.58301         7.92632
   C       -8.29902       -20.19336         8.70520
   C        0.97016        -3.39647        -4.27637
   O        1.68639        -4.34104        -4.03820
   C       -0.23539        -2.95173        -3.56085
   C       -0.78415        -1.86647        -4.23823
   C       -0.02187        -1.53941        -5.40920
   C       -0.45661        -0.73519        -6.43695
   C       -1.66806        -0.02487        -6.33097
   N       -2.64702         0.56707        -6.23598
   C        0.19195        -0.61491        -7.67716
   N        0.66958        -0.52103        -8.71730
   C        1.15990        -2.38383        -5.35939
   C        2.34217        -2.36218        -6.03151
   C        2.94294        -1.35062        -6.81792
   S        4.03381        -1.90034        -8.08520
   C        4.37756        -0.27450        -8.53088
   C        3.71057         0.63308        -7.69828
   C        2.90214         0.03460        -6.71990
   C        2.21173         0.79554        -5.63420
   C        3.16870         1.72708        -4.88990
   S        4.03816         2.30213        -8.11026
   C        5.07329         1.76552        -9.38504
   C        5.16096         0.37578        -9.48995
   N        5.99495         0.03654       -10.51880
   C        6.10226        -1.35637       -10.88496
   C        6.48618         1.20213       -11.08108
   C        5.88811         2.30052       -10.39078
   C        6.10761         3.64443       -10.76120
   N        5.60163         4.74433       -10.22522
   S        6.15232         6.01807       -11.05851
   N        7.06181         5.21515       -12.13059
   C        6.96280         3.91996       -11.87434
   C        7.61037         2.84206       -12.51538
   C        7.42027         1.48182       -12.11993
   N        8.28215         0.70355       -12.87241
   C        8.57111        -0.71042       -12.92157
   C        7.83160        -1.39360       -14.07233
   C        8.96373         1.52345       -13.72735
   C        8.56645         2.85043       -13.53889
   S        9.37808         3.97481       -14.57077
   C       10.28324         2.64671       -15.26298
   C        9.95559         1.40491       -14.70265
   S       10.88727         0.13616       -15.40222
   C       11.68824         1.28267       -16.47688
   C       11.27054         2.58915       -16.25080
   C       11.73074         3.77042       -17.03577
   C       11.03629         3.81077       -18.39916
   C       12.70663         0.86704       -17.36065
   C       12.95752        -0.37590       -17.85569
   C       12.14389        -1.57769       -17.88977
   C       10.77620        -1.67527       -17.96081
   C       10.13356        -2.92666       -18.01643
   N        9.59722        -3.94153       -18.02905
   C        9.91731        -0.56564       -18.07505
   N        9.19414         0.31274       -18.23025
   C       13.06250        -2.66071       -18.12020
   C       14.33154        -2.18712       -18.42597
   C       14.32364        -0.71709       -18.35342
   O       15.21979         0.05907       -18.59381
   C        7.08642        -2.10507        -9.98526
   C       15.23907        -3.21604       -18.72993
   C       14.63877        -4.43750       -18.64893
   S       12.96692        -4.36770       -18.21865
   S       -2.21554        -1.29083        -3.48891
   C       -2.05386        -2.50171        -2.23189
   C       -0.95269        -3.31478        -2.42328
   C       -2.97862        -2.56525        -1.15408
   S       -2.70810        -3.68408         0.14979
   C       -4.13312        -3.12540         0.97773
   C       -4.76766        -2.13922         0.26072
   C       -4.11773        -1.82268        -0.93591
   H       -3.60419       -26.83154       -11.74463
   H       -0.82923       -29.23575       -11.46929
   H       -0.42502       -30.17898       -10.02424
   H        0.88856       -27.53835       -10.83216
   H        1.58531       -29.14409       -11.06365
   H        1.33498       -28.52110        -9.43330
   H       -4.40921       -25.33299        -5.09113
   H       -3.76789       -25.33354        -6.72380
   H       -4.44286       -24.48252        -3.36456
   H       -4.75834       -24.64859        -1.64688
   H       -4.49614       -27.05062        -3.53005
   H       -6.02095       -26.35922        -2.95946
   H       -4.89598       -27.09482        -1.81581
   H       -1.59793       -24.96342         4.07558
   H       -2.14751       -23.34620         4.51001
   H        0.38075       -24.09485         2.95454
   H        0.28904       -23.38426         4.56605
   H       -0.15592       -22.43223         3.14864
   H       -5.58629       -22.94758         3.18883
   H       -2.57007       -23.64165        -4.46834
   H       -3.67048       -23.04600        -5.71861
   H       -2.07209       -23.65162        -6.15723
   H       -3.69779       -18.39380         8.57630
   H       -3.66306       -29.67667       -16.58628
   H       -3.18769       -33.43568       -20.29426
   H       -2.58067       -35.30638       -18.56315
   H       -2.51911       -34.36971       -16.13261
   H      -14.31203       -15.79042        12.41742
   H      -16.08876       -14.53670        12.97805
   H      -16.68978       -12.86768        13.02156
   H      -14.54050       -14.01402        14.87698
   H      -16.22974       -13.72490        15.31731
   H      -15.16655       -12.36820        14.92812
   H      -10.83528        -9.98421         8.59517
   H      -11.09814       -10.94602        10.03648
   H      -10.16650        -8.34785         7.85301
   H      -10.22427        -7.22337         6.50944
   H      -12.35453        -9.37719         6.95485
   H      -11.00367        -9.49966         5.81888
   H      -12.24521        -8.26543         5.59372
   H      -12.38725        -1.00645         5.93038
   H      -11.19222        -0.79647         4.63496
   H      -10.59474        -0.56365         7.62581
   H      -10.79677         0.79719         6.51510
   H       -9.43247        -0.31302         6.32695
   H       -9.21897        -1.71555         3.76924
   H      -10.31488        -7.98748        10.13979
   H       -9.20918        -9.35015        10.36554
   H      -10.52149        -9.07376        11.51102
   H       -2.77409        -5.04506         2.51451
   H      -10.74176       -19.60228        10.29992
   H       -7.21078       -21.43940         7.27723
   H       -9.23145       -20.72664         8.72702
   H        2.93660        -3.26435        -5.90810
   H        1.77935         0.09540        -4.91829
   H        1.40027         1.38730        -6.06958
   H        4.00636         1.16269        -4.48588
   H        2.64413         2.20491        -4.06638
   H        3.55384         2.50148        -5.54643
   H        6.36262        -1.44129       -11.93616
   H        5.10900        -1.79946       -10.75714
   H        8.35007        -1.17147       -11.96437
   H        9.64865        -0.80869       -13.09224
   H        8.16536        -0.98846       -15.02452
   H        6.75683        -1.23796       -14.00415
   H        8.03549        -2.46063       -14.06382
   H       12.81257         3.72764       -17.17972
   H       11.48880         4.67587       -16.47609
   H       11.27371         2.91869       -18.97394
   H       11.36024         4.68536       -18.95693
   H        9.95791         3.85698       -18.27113
   H       13.44420         1.62093       -17.62013
   H        8.05311        -1.60642        -9.94781
   H        7.22411        -3.11851       -10.35155
   H        6.69827        -2.15684        -8.97151
   H       16.26845        -3.06228       -18.99562
   H       15.08137        -5.39793       -18.82769
   H       -0.69384        -4.12388        -1.76496
   H       -5.67031        -1.66322         0.59968
   H       -4.46185        -1.07328        -1.62671
*
