# ORCA input file
# SCF done       -547.121667777569          0.000866737321
! CAM-B3LYP def2-SVP def2/J RIJCOSX Grid4 TightSCF
%maxcore 5000
%tddft
    Mode sTDDFT
    Ethresh 5.0
    maxcore 5000
end

%pal
  nprocs 6
  end
* xyz 0 1
   C       -4.94922       -34.72448       -11.75901
   O       -5.10060       -33.60416       -11.29989
   C       -5.16368       -35.99550       -11.09033
   C       -4.88475       -37.06341       -11.93646
   C       -4.46768       -36.53762       -13.22457
   C       -4.12725       -37.31540       -14.30140
   C       -4.15406       -38.72424       -14.23274
   N       -4.17241       -39.87128       -14.20306
   C       -3.72385       -36.84972       -15.56757
   N       -3.38993       -36.54045       -16.62280
   C       -4.49790       -35.08981       -13.11670
   C       -4.13982       -34.22505       -14.11833
   C       -4.11732       -32.82532       -14.16296
   S       -4.60221       -31.77301       -12.83445
   C       -4.25801       -30.38271       -13.79133
   C       -3.79003       -30.72910       -15.06986
   C       -3.70319       -32.09818       -15.29101
   C       -3.27988       -32.68076       -16.59982
   C       -4.49781       -33.00561       -17.46914
   S       -3.43197       -29.34371       -16.08452
   C       -3.92104       -28.30694       -14.78926
   C       -4.32120       -28.99505       -13.63580
   N       -4.72694       -28.10320       -12.67899
   C       -5.48508       -28.55935       -11.53399
   C       -4.59196       -26.83391       -13.20226
   C       -4.11430       -26.94109       -14.54077
   C       -4.04163       -25.81284       -15.38931
   N       -3.64492       -25.75546       -16.65043
   S       -3.86227       -24.24523       -17.19064
   N       -4.47262       -23.60398       -15.83558
   C       -4.52385       -24.54791       -14.90943
   C       -4.93525       -24.43743       -13.56209
   C       -4.87120       -25.54888       -12.67486
   N       -5.21749       -25.12729       -11.40252
   C       -4.76815       -25.64418       -10.12681
   C       -3.49323       -24.93770        -9.66581
   C       -5.54474       -23.79806       -11.49012
   C       -5.38877       -23.34487       -12.80490
   S       -5.80623       -21.68013       -13.01698
   C       -6.20215       -21.58355       -11.31279
   C       -6.00913       -22.79553       -10.63729
   S       -6.48075       -22.66394        -8.99086
   C       -6.89345       -20.95179        -9.20991
   C       -6.70279       -20.53678       -10.52755
   C       -7.07364       -19.22947       -11.13953
   C       -8.55123       -18.88530       -10.95971
   C       -7.45563       -20.36811        -8.05636
   C       -7.52711       -19.07014        -7.63084
   C       -8.35177       -18.62559        -6.51875
   C       -9.25191       -19.34525        -5.77762
   C       -9.96977       -18.75608        -4.71477
   N      -10.55565       -18.30005        -3.84010
   C       -9.57847       -20.70465        -5.95180
   N       -9.90803       -21.80162        -6.03956
   C       -8.08881       -17.21068        -6.33863
   C       -7.12836       -16.81281        -7.26219
   C       -6.69785       -17.93095        -8.09427
   O       -5.79590       -17.95166        -8.90951
   C       -4.59659       -29.19394       -10.46335
   S       -6.72162       -15.15976        -7.11152
   C       -7.87431       -14.98583        -5.80442
   C       -8.52229       -16.16921        -5.51240
   C       -5.07342       -38.30816       -11.32704
   C       -5.49326       -38.17626       -10.01868
   S       -5.66031       -36.50324        -9.53495
   C       -5.77857       -39.22128        -9.09319
   S       -5.62224       -40.89345        -9.55388
   C       -6.10777       -41.40036        -7.99018
   C       -6.37463       -40.35331        -7.16201
   C       -6.18848       -39.10945        -7.78631
   C      -10.75875        -8.16168        -0.46255
   O      -10.21136        -7.09859        -0.22084
   C      -10.30381        -9.21101        -1.36051
   C      -11.18645       -10.28602        -1.36505
   C      -12.29687        -9.97811        -0.47977
   C      -13.36090       -10.81426        -0.25962
   C      -13.46261       -12.06404        -0.90673
   N      -13.56715       -13.08219        -1.42521
   C      -14.45293       -10.56160         0.59277
   N      -15.36929       -10.42235         1.27199
   C      -12.03336        -8.66633         0.08304
   C      -12.86344        -8.01203         0.95791
   C      -12.72069        -6.78733         1.61996
   S      -11.30516        -5.74344         1.49653
   C      -11.98776        -4.65907         2.64714
   C      -13.25678        -5.08157         3.07858
   C      -13.68296        -6.27303         2.50570
   C      -14.97730        -6.92565         2.86626
   C      -14.77968        -7.93605         3.99971
   S      -13.98670        -4.01078         4.26127
   C      -12.57633        -3.01185         4.18383
   C      -11.61101        -3.46968         3.27583
   N      -10.51359        -2.65193         3.31082
   C       -9.26676        -3.08259         2.71575
   C      -10.75677        -1.66209         4.23980
   C      -12.03785        -1.88641         4.82245
   C      -12.48019        -1.13327         5.93474
   N      -13.62367        -1.23363         6.59252
   S      -13.58275        -0.22154         7.85538
   N      -12.10125         0.38444         7.61298
   C      -11.58704        -0.17914         6.53196
   C      -10.34214         0.07806         5.91339
   C       -9.97122        -0.57892         4.70386
   N       -8.77406        -0.05352         4.25722
   C       -8.28817         0.07042         2.89850
   C       -8.70177         1.40939         2.28832
   C       -8.36151         0.86552         5.18669
   C       -9.29999         0.96693         6.22100
   S       -8.84240         2.09319         7.45499
   C       -7.35820         2.41960         6.57348
   C       -7.25383         1.69140         5.37652
   S       -5.78044         1.99919         4.54686
   C       -5.28387         3.10857         5.82712
   C       -6.26125         3.23162         6.83205
   C       -6.13701         4.05660         8.07126
   C       -5.38532         3.28941         9.16273
   C       -4.04332         3.75407         5.87905
   C       -2.95150         3.66664         5.05039
   C       -1.67601         4.31984         5.28255
   C       -1.32533         5.20064         6.27402
   C       -0.02551         5.74240         6.34741
   N        1.02958         6.18803         6.42313
   C       -2.16746         5.67091         7.29966
   N       -2.79921         6.08952         8.16346
   C       -0.77188         3.86416         4.23837
   C       -1.47459         3.01796         3.38707
   C       -2.85242         2.86063         3.82000
   O       -3.72834         2.20872         3.27659
   C       -9.25902        -2.91339         1.19610
   S       -0.50855         2.39398         2.12858
   C        0.87543         3.26406         2.75025
   C        0.57082         4.00979         3.87505
   C      -10.77186       -11.33074        -2.19595
   C       -9.58024       -11.03470        -2.82953
   S       -8.96239        -9.45705        -2.39067
   C       -8.86756       -11.85771        -3.74531
   S       -9.34592       -13.50757        -4.01299
   C       -8.06056       -13.72977        -5.16266
   C       -7.32298       -12.57482        -5.31505
   C       -7.77124       -11.52611        -4.51343
   C        7.69386         0.31878        -2.55076
   O        8.89444         0.51585        -2.46600
   C        6.63669         0.88049        -1.72294
   C        5.38835         0.41591        -2.12422
   C        5.56314        -0.47361        -3.25886
   C        4.53181        -1.09484        -3.91606
   C        3.18934        -0.90995        -3.52458
   N        2.08964        -0.77169        -3.22676
   C        4.65147        -1.96216        -5.01885
   N        4.67399        -2.67740        -5.91813
   C        6.98838        -0.54649        -3.51602
   C        7.56048        -1.31673        -4.49661
   C        8.89830        -1.51947        -4.84932
   S       10.27470        -0.74364        -4.06564
   C       11.35855        -1.59306        -5.10134
   C       10.67620        -2.42731        -6.00452
   C        9.29438        -2.39164        -5.87790
   C        8.38333        -3.23500        -6.70858
   C        8.03016        -4.53535        -5.98131
   S       11.73759        -3.31101        -7.08551
   C       13.09114        -2.55207        -6.32328
   C       12.74092        -1.67909        -5.28525
   N       13.86796        -1.10587        -4.76051
   C       13.74144         0.04084        -3.88958
   C       14.95887        -1.60917        -5.43953
   C       14.48419        -2.49676        -6.45185
   C       15.34753        -3.05805        -7.41887
   N       15.04798        -3.86183        -8.42672
   S       16.39505        -4.13462        -9.28270
   N       17.41265        -3.23873        -8.39819
   C       16.73421        -2.69566        -7.39997
   C       17.21515        -1.89253        -6.34184
   C       16.35846        -1.40797        -5.30928
   N       17.13742        -0.77201        -4.35644
   C       16.89738        -0.56841        -2.94320
   C       16.96184        -1.89322        -2.18580
   C       18.44086        -0.83967        -4.77639
   C       18.51853        -1.50305        -6.00605
   S       20.12697        -1.64149        -6.62553
   C       20.71327        -0.80920        -5.19682
   C       19.69439        -0.44622        -4.29966
   S       20.31520         0.35721        -2.90854
   C       21.95676         0.19836        -3.53519
   C       21.98968        -0.45658        -4.77774
   C       23.20964        -0.70828        -5.60216
   C       23.56884         0.52723        -6.43222
   C       23.10774         0.65587        -2.88345
   C       23.27117         1.31622        -1.69300
   C       24.55308         1.72368        -1.14388
   C       25.81061         1.52381        -1.65337
   C       26.96150         1.98347        -0.97938
   N       27.91142         2.34991        -0.44983
   C       26.12428         0.86103        -2.85554
   N       26.45144         0.33380        -3.82293
   C       24.27522         2.40560         0.10699
   C       22.90351         2.40976         0.31941
   C       22.20252         1.73671        -0.76719
   O       21.00256         1.55814        -0.88181
   C       13.42837        -0.36162        -2.44902
   S       22.47074         3.19141         1.77592
   C       24.13391         3.51314         2.09871
   C       24.98494         3.04613         1.14080
   C        4.34248         0.90809        -1.34080
   C        4.80294         1.74866        -0.34506
   S        6.54202         1.93755        -0.38138
   C        4.01241         2.39223         0.64613
   S        2.30532         2.07930         0.72971
   C        2.14099         3.11621         2.11415
   C        3.35496         3.67275         2.46344
   C        4.40417         3.26419         1.64021
   H       -3.81342       -34.68740       -15.04042
   H       -2.68747       -33.58512       -16.45410
   H       -2.66009       -31.94484       -17.11590
   H       -5.13503       -33.73906       -16.98075
   H       -4.17184       -33.41412       -18.42125
   H       -5.08055       -32.10630       -17.65450
   H       -6.19271       -29.31780       -11.88654
   H       -6.06611       -27.72365       -11.14199
   H       -4.56415       -26.70436       -10.21151
   H       -5.56696       -25.48394        -9.39602
   H       -2.70396       -25.06532       -10.40402
   H       -3.16259       -25.36371        -8.72268
   H       -3.66527       -23.87455        -9.52188
   H       -6.83998       -19.27980       -12.20517
   H       -6.45736       -18.44330       -10.69422
   H       -9.17758       -19.66737       -11.38393
   H       -8.77420       -17.95046       -11.46733
   H       -8.80561       -18.77449        -9.90876
   H       -7.89007       -21.10291        -7.38609
   H       -4.23494       -30.16090       -10.80079
   H       -5.17127       -29.34604        -9.55424
   H       -3.73230       -28.57311       -10.23623
   H       -9.25873       -16.25174        -4.73415
   H       -4.91750       -39.26402       -11.79261
   H       -6.16755       -42.44850        -7.77410
   H       -6.69277       -40.46799        -6.14166
   H       -6.34626       -38.16153        -7.30324
   H      -13.78490        -8.52495         1.19947
   H      -15.41676        -7.42880         2.00407
   H      -15.66887        -6.14907         3.19919
   H      -14.09630        -8.72587         3.69708
   H      -15.73237        -8.38832         4.25920
   H      -14.37444        -7.44216         4.87974
   H       -9.14228        -4.14703         2.94358
   H       -8.44581        -2.54508         3.19152
   H       -8.69662        -0.72662         2.28939
   H       -7.19675        -0.00390         2.91846
   H       -9.78533         1.51072         2.29776
   H       -8.35331         1.46090         1.26074
   H       -8.26826         2.23920         2.83919
   H       -7.14228         4.28807         8.42878
   H       -5.62157         4.99598         7.86663
   H       -5.90902         2.36781         9.40566
   H       -5.31530         3.89858        10.05931
   H       -4.37837         3.04092         8.83538
   H       -3.92654         4.39623         6.74206
   H       -9.60052        -1.92405         0.89872
   H       -9.91264        -3.64694         0.73299
   H       -8.25327        -3.06816         0.81629
   H        1.29129         4.61153         4.39580
   H      -11.29517       -12.25706        -2.34774
   H       -6.48332       -12.50668        -5.98365
   H       -7.32135       -10.54948        -4.49096
   H        6.86822        -1.88363        -5.10475
   H        8.89912        -3.47745        -7.63981
   H        7.46666        -2.69753        -6.95550
   H        8.93157        -5.10315        -5.76299
   H        7.37811        -5.13985        -6.60509
   H        7.51541        -4.32668        -5.04633
   H       12.90971         0.64666        -4.26564
   H       14.64630         0.64509        -3.96824
   H       15.94172        -0.08681        -2.77035
   H       17.68423         0.09928        -2.58289
   H       16.20573        -2.58366        -2.55547
   H       16.79564        -1.72018        -1.12628
   H       17.93914        -2.35318        -2.31160
   H       22.99927        -1.54097        -6.27625
   H       24.05894        -0.98266        -4.97478
   H       22.74620         0.79113        -7.09277
   H       24.44927         0.32251        -7.03444
   H       23.78253         1.37613        -5.78692
   H       24.01829         0.44565        -3.42862
   H       12.42918        -0.78463        -2.39287
   H       13.46033         0.51433        -1.80728
   H       14.13321        -1.10085        -2.07756
   H       24.39372         4.03980         2.99606
   H       26.05205         3.16003         1.18379
   H        3.30085         0.67720        -1.46969
   H        3.47473         4.34716         3.29126
   H        5.42338         3.58634         1.75976
*
