# ORCA input file
# SCF done       -183.036351702168          0.000649954593
! CAM-B3LYP def2-SVP def2/J RIJCOSX Grid4 TightSCF
%maxcore 5000
%tddft
    Mode sTDDFT
    Ethresh 5.0
    maxcore 5000
end

%pal
  nprocs 6
  end
* xyz 0 1
   C        4.56005        -0.31593        -2.49415
   O        4.56146        -1.50824        -2.23499
   C        3.98051         0.34129        -3.65259
   C        4.18265         1.71628        -3.60523
   C        4.91803         2.03527        -2.39384
   C        5.29682         3.30287        -2.03265
   C        4.99198         4.42172        -2.83591
   N        4.75645         5.34705        -3.47253
   C        6.00887         3.65699        -0.87068
   N        6.58620         4.01686         0.05551
   C        5.14814         0.78082        -1.70028
   C        5.80146         0.66076        -0.50082
   C        6.09411        -0.46326         0.28086
   S        5.67822        -2.12161        -0.15059
   C        6.39264        -2.69389         1.30877
   C        6.92265        -1.64613         2.08043
   C        6.76448        -0.38802         1.51319
   C        7.20820         0.86657         2.19187
   C        6.05280         1.49835         2.97322
   S        7.66739        -2.18242         3.57588
   C        7.26526        -3.81075         3.15374
   C        6.58470        -3.92789         1.93683
   N        6.32553        -5.24477         1.67332
   C        5.79948        -5.60259         0.37587
   C        6.81956        -6.00035         2.71935
   C        7.44065        -5.10843         3.64761
   C        8.14881        -5.56618         4.78043
   N        8.78764        -4.85757         5.69785
   S        9.48193        -5.88124         6.74286
   N        8.99138        -7.26751         6.06466
   C        8.26630        -6.97630         4.99633
   C        7.59040        -7.85647         4.12292
   C        6.81734        -7.39327         3.01350
   N        6.19042        -8.48762         2.44943
   C        5.15662        -8.61337         1.44790
   C        5.69792        -9.17535         0.13354
   C        6.56772        -9.60338         3.14505
   C        7.44149        -9.24667         4.17834
   S        7.95544       -10.57999         5.15208
   C        6.95979       -11.63784         4.16849
   C        6.27633       -10.97040         3.13733
   S        5.29362       -12.04505         2.21642
   C        5.80285       -13.39825         3.22723
   C        6.71073       -13.00260         4.22435
   C        7.29976       -13.88834         5.27299
   C        6.34482       -14.03201         6.46122
   C        5.34989       -14.71450         3.08724
   C        4.45223       -15.27477         2.21442
   C        4.05456       -16.67165         2.22265
   C        4.47166       -17.68141         3.05191
   C        3.97253       -18.99458         2.92451
   N        3.58096       -20.07021         2.84029
   C        5.40735       -17.56526         4.09766
   N        6.16129       -17.54383         4.96476
   C        3.08506       -16.83756         1.15492
   C        2.90270       -15.61573         0.52242
   C        3.73126       -14.58159         1.13087
   O        3.81368       -13.40871         0.81010
   C        4.29436        -5.35396         0.27677
   S        1.77409       -15.70540        -0.75748
   C        1.54608       -17.38512        -0.44046
   C        2.29661       -17.86064         0.59415
   C        3.63523         2.38804        -4.70327
   C        3.01969         1.51616        -5.57851
   S        3.11748        -0.14737        -5.04533
   C        2.35366         1.83948        -6.79587
   S        2.22778         3.48967        -7.33760
   C        1.36106         2.99685        -8.73198
   C        1.17797         1.64885        -8.78271
   C        1.74186         0.98507        -7.68127
   H        6.15465         1.58667        -0.06676
   H        7.59551         1.58817         1.47118
   H        8.01089         0.61233         2.88690
   H        5.23436         1.75949         2.30633
   H        6.39441         2.40239         3.46899
   H        5.68147         0.80556         3.72480
   H        6.05608        -6.63455         0.15461
   H        6.30051        -4.96869        -0.36363
   H        4.66884        -7.65339         1.30817
   H        4.41009        -9.31345         1.83815
   H        4.92130        -9.14326        -0.62504
   H        6.00061       -10.21018         0.26640
   H        6.56089        -8.61365        -0.21877
   H        8.23074       -13.43427         5.61815
   H        7.52937       -14.87590         4.87059
   H        6.13724       -13.05831         6.89876
   H        6.79335       -14.66797         7.21884
   H        5.40494       -14.48055         6.14796
   H        5.78317       -15.39364         3.80942
   H        3.75597        -5.80933         1.10568
   H        3.91734        -5.76129        -0.65683
   H        4.09017        -4.28711         0.28814
   H        0.85643       -17.93695        -1.04876
   H        2.27708       -18.88217         0.92533
   H        3.67266         3.44871        -4.87141
   H        1.03612         3.73705        -9.43580
   H        0.65802         1.14859        -9.57950
   H        1.70581        -0.07979        -7.53431
*
