# ORCA input file
# SCF done       -272.759513543154          0.000748430427
! wb97x-d3 def2-SVP def2/J RIJCOSX Grid4 TightSCF
%maxcore 5000
%tddft
    Mode sTDA
    Ethresh 5.0
    maxcore 5000
end

%pal
  nprocs 6
  end
* xyz 1 2
   C        2.18108        -2.91568         0.67263
   C        2.17053        -2.36436         1.97440
   C        1.11693        -1.57773         2.42959
   C        0.06669        -1.37220         1.56538
   C        0.05602        -1.96148         0.27952
   C        1.11950        -2.73062        -0.18290
   C        3.44619        -3.72557         0.43575
   C        4.11295        -3.61526         1.78377
   C        3.36558        -2.80990         2.62320
   C        5.26704        -4.11919         2.38155
   C        5.38370        -3.71069         3.69444
   S        4.07045        -2.65838         4.18169
   C       -1.21089        -0.58668         1.81433
   C       -1.96794        -0.86437         0.54094
   C       -1.19455        -1.61517        -0.32495
   C       -3.19852        -0.49093         0.00542
   C       -3.36300        -0.96509        -1.27959
   S       -1.98077        -1.89146        -1.82772
   C        6.37480        -4.10673         4.63978
   C       -4.48288        -0.74247        -2.13333
   C       -1.87126        -1.11203         3.07048
   C       -1.01518         0.91838         1.85106
   C        3.05757        -5.14479         0.07117
   C        4.37973        -3.11366        -0.59251
   C        2.83635        -5.49191        -1.25567
   C        2.45245        -6.77657        -1.59015
   C        2.27440        -7.74645        -0.61212
   C        2.48176        -7.39094         0.71363
   C        2.86001        -6.10521         1.05360
   C        4.21396        -1.81881        -1.06068
   C        5.11168        -1.28110        -1.96601
   C        6.19666        -2.01664        -2.42085
   C        6.36665        -3.30806        -1.93712
   C        5.47346        -3.84959        -1.03406
   C       -1.52917        -0.58700         4.31026
   C       -2.08508        -1.10039         5.46663
   C       -2.98951        -2.15305         5.41700
   C       -3.32503        -2.67632         4.17549
   C       -2.77037        -2.16771         3.01584
   C       -2.07678         1.72406         2.24815
   C       -1.97097         3.09962         2.19842
   C       -0.80608         3.70915         1.74766
   C        0.25064         2.90074         1.35462
   C        0.14971         1.52119         1.40146
   C       -3.62640        -2.68123         6.67012
   C       -0.72184         5.20411         1.63512
   C        7.19252        -1.41630        -3.37102
   C        1.91585        -9.15629        -0.98428
   C        8.33662        -0.75570        -2.59924
   C        3.18110        -9.97971        -1.23401
   C       -4.94080        -1.95049         6.95165
   C       -1.33464         5.67224         0.31345
   S       -4.72047        -1.65899        -3.59466
   C       -6.13962        -0.79711        -3.97289
   C       -6.47052         0.13475        -3.01632
   C       -5.51039         0.15880        -1.95287
   S        6.52501        -3.31212         6.18176
   C        7.75186        -4.38414         6.67797
   C        8.09211        -5.29382         5.70480
   C        7.30074        -5.12217         4.52277
   O        7.44073        -5.88071         3.40175
   C        7.14714        -7.26905         3.53292
   C        5.65689        -7.53559         3.69377
   C        9.15568        -6.24991         5.80188
   C        9.60488        -6.89872         6.90284
   C       10.94571        -7.54577         6.88820
   C       11.26760        -7.78692         8.31187
   C       10.16179        -7.44081         9.11079
   C        9.06206        -7.02653         8.24376
   C       12.44093        -8.25800         8.86529
   C       12.51785        -8.37641        10.24748
   C       11.42627        -8.02053        11.04958
   C       10.24229        -7.55534        10.48882
   O       11.62848        -7.78052         5.92025
   C        7.74032        -7.00716         8.59498
   C        6.68005        -6.87059         7.67475
   C        7.27367        -7.21679         9.91027
   N        6.84518        -7.36486        10.96415
   N        5.76912        -6.83098         6.97781
  Cl       11.54245        -8.15747        12.75655
  Cl       13.95952        -8.95971        10.97317
   O       -5.60064         0.99090        -0.87872
   C       -5.42113         2.37964        -1.14821
   C       -3.99350         2.71831        -1.55533
   C       -7.66789         0.91870        -2.98629
   C       -8.42648         1.35459        -4.02076
   C       -9.83374         1.77779        -3.78137
   C      -10.46439         1.77080        -5.12019
   C       -9.48869         1.50939        -6.10030
   C       -8.18558         1.39783        -5.45109
   C      -11.79035         1.96081        -5.45243
   C      -12.15365         1.87705        -6.79091
   C      -11.18997         1.60525        -7.77015
   C       -9.85309         1.42459        -7.43374
   O      -10.34800         2.02689        -2.71772
   C       -6.97262         1.55710        -6.06349
   C       -5.76229         1.71622        -5.35650
   C       -6.80617         1.67217        -7.45944
   N       -4.76060         1.91057        -4.83136
   N       -6.61804         1.75451        -8.58816
  Cl      -13.79343         2.10558        -7.24340
  Cl      -11.65828         1.48974        -9.41730
   H        1.12795        -1.15897         3.42415
   H        1.09955        -3.16704        -1.16979
   H        5.99334        -4.75231         1.90875
   H       -3.95403         0.08039         0.50991
   H        2.97704        -4.75513        -2.03346
   H        2.28757        -7.02970        -2.62797
   H        2.34188        -8.12736         1.49248
   H        3.00106        -5.84836         2.09352
   H        3.37787        -1.22466        -0.72235
   H        4.96256        -0.27285        -2.32594
   H        7.20782        -3.89703        -2.27436
   H        5.61735        -4.85829        -0.67495
   H       -0.83062         0.23554         4.36965
   H       -1.80869        -0.67953         6.42311
   H       -4.02579        -3.49704         4.11488
   H       -3.03947        -2.59509         2.06075
   H       -2.98924         1.26643         2.60203
   H       -2.80557         3.71119         2.51108
   H        1.16640         3.35402         1.00226
   H        0.98383         0.91312         1.08332
   H       -3.82512        -3.74950         6.56181
   H       -2.94970        -2.54366         7.51580
   H       -1.25869         5.66940         2.46461
   H        0.32139         5.52215         1.68202
   H        7.59950        -2.19391        -4.02077
   H        6.70254        -0.66875        -3.99810
   H        1.33961        -9.61706        -0.17944
   H        1.30262        -9.15643        -1.88766
   H        8.84493        -1.48816        -1.97611
   H        9.05947        -0.32177        -3.28629
   H        7.95233         0.03205        -1.95503
   H        3.79948       -10.00298        -0.33933
   H        2.92431       -11.00097        -1.50575
   H        3.76400        -9.54136        -2.04109
   H       -5.63355        -2.08597         6.12400
   H       -5.40329        -2.33347         7.85841
   H       -4.76159        -0.88478         7.07611
   H       -2.38131         5.38132         0.25805
   H       -1.26909         6.75418         0.22461
   H       -0.81078         5.22142        -0.52652
   H       -6.71017        -1.07377        -4.83769
   H        8.22624        -4.24380         7.62950
   H        7.52561        -7.71305         2.60897
   H        7.69660        -7.69299         4.38424
   H        5.10453        -7.11438         2.85748
   H        5.48423        -8.60777         3.72833
   H        5.29455        -7.09422         4.61941
   H        9.71975        -6.41843         4.88885
   H       13.27561        -8.52764         8.23773
   H        9.42202        -7.28660        11.13449
   H       -5.68635         2.87003        -0.20870
   H       -6.11933         2.70392        -1.93185
   H       -3.75038         2.24246        -2.50256
   H       -3.89905         3.79393        -1.67544
   H       -3.28947         2.38261        -0.79705
   H       -8.06290         1.11865        -1.99406
   H      -12.52430         2.16890        -4.69003
   H       -9.13591         1.21327        -8.21041
*
