# ORCA input file
# SCF done       -272.769758263095          0.001312739566
! wb97x-d3 def2-SVP def2/J RIJCOSX Grid4 TightSCF
%maxcore 5000
%tddft
    Mode sTDA
    Ethresh 5.0
    maxcore 5000
end

%pal
  nprocs 6
  end
* xyz 1 2
   C        2.12078        -2.20886        -0.21922
   C        2.37018        -1.57091         1.02215
   C        1.41558        -0.76846         1.64068
   C        0.19417        -0.65236         1.01968
   C       -0.08384        -1.35608        -0.17670
   C        0.88680        -2.12236        -0.81864
   C        3.34586        -2.97332        -0.69247
   C        4.25333        -2.80202         0.49400
   C        3.67707        -1.97648         1.43912
   C        5.46578        -3.34542         0.90349
   C        5.82064        -2.95467         2.18074
   S        4.64029        -1.84124         2.85993
   C       -1.01744         0.14547         1.47128
   C       -2.05475        -0.33304         0.48719
   C       -1.46265        -1.14028        -0.47882
   C       -3.41573        -0.16152         0.29469
   C       -3.87251        -0.85259        -0.82135
   S       -2.57994        -1.69270        -1.65721
   C        6.83148        -3.68204         2.90358
   C       -5.20662        -0.96694        -1.25338
   C       -1.33410        -0.15079         2.92084
   C       -0.85676         1.63965         1.22916
   C        3.02786        -4.42850        -0.98506
   C        4.03323        -2.31930        -1.88231
   C        2.50886        -4.78886        -2.22331
   C        2.25142        -6.11294        -2.52004
   C        2.51197        -7.11786        -1.59585
   C        3.00710        -6.75097        -0.35354
   C        3.25122        -5.42485        -0.04550
   C        5.05806        -3.00281        -2.52676
   C        5.74398        -2.41511        -3.57137
   C        5.43328        -1.12894        -3.99548
   C        4.41236        -0.45012        -3.34555
   C        3.72254        -1.03286        -2.29719
   C       -0.71552         0.57656         3.93031
   C       -0.98042         0.29984         5.25785
   C       -1.86430        -0.71086         5.61307
   C       -2.46771        -1.44477         4.60090
   C       -2.20265        -1.17471         3.27101
   C       -1.82399         2.50778         1.72226
   C       -1.74162         3.86402         1.47611
   C       -0.69775         4.39055         0.72512
   C        0.26272         3.51911         0.23211
   C        0.18426         2.15902         0.47433
   C       -2.20257        -0.96414         7.05367
   C       -0.58698         5.87000         0.49404
   C        6.15245        -0.50868        -5.15843
   C        2.30792        -8.56167        -1.95282
   C        5.44410        -0.85331        -6.47005
   C        3.41421        -9.04478        -2.89304
   C       -3.39486        -0.10356         7.47710
   C        0.19850         6.53131         1.62835
   S       -6.53139        -0.30674        -0.35914
   C       -7.67857        -0.96217        -1.50423
   C       -7.01532        -1.64474        -2.53394
   C       -5.63974        -1.66039        -2.39975
   S        6.64104        -5.39697         2.63873
   C        8.11989        -5.77711         3.46462
   C        8.66659        -4.62522         3.98510
   C        7.96586        -3.44036         3.66651
   O        8.52065        -2.27890         4.05940
   C        7.81040        -1.06065         3.92795
   C        6.85124        -0.84641         5.09292
   C        8.56052        -7.11683         3.59046
   C        8.15323        -8.17987         2.83989
   C        8.24775        -9.56503         3.37087
   C        7.27462       -10.34342         2.56511
   C        6.75490        -9.53128         1.54035
   C        7.42407        -8.23631         1.58683
   C        6.85191       -11.64668         2.73086
   C        5.87948       -12.14062         1.86838
   C        5.34472       -11.32839         0.86174
   C        5.78322       -10.02102         0.68544
   O        8.92198        -9.95206         4.29517
   C        7.55539        -7.38103         0.52591
   C        8.44945        -6.28780         0.52010
   C        6.85650        -7.51320        -0.68942
   N        6.29249        -7.54520        -1.68920
   N        9.19352        -5.41663         0.45471
  Cl        4.12413       -11.94358        -0.17649
  Cl        5.32845       -13.75812         2.04622
   O       -4.71416        -2.23487        -3.19198
   C       -5.16130        -2.95578        -4.32866
   C       -3.93417        -3.51067        -5.03127
   C       -9.06971        -0.88273        -1.44631
   C       -9.89157        -0.31711        -0.49426
   C       -9.43988         0.36934         0.71412
   C      -10.66450         0.74370         1.45155
   C      -11.79012         0.32293         0.72272
   C      -11.33680        -0.33362        -0.50525
   C      -10.77864         1.39170         2.66312
   C      -12.05320         1.62640         3.16542
   C      -13.17923         1.21238         2.44879
   C      -13.05784         0.56009         1.22529
   O       -8.29368         0.59784         1.06226
   C      -12.16459        -0.85818        -1.46725
   C      -11.75002        -1.49033        -2.65702
   C      -13.57284        -0.83452        -1.39706
   N      -11.50021        -2.01811        -3.64718
   N      -14.72069        -0.85368        -1.40542
  Cl      -12.23981         2.42677         4.67409
  Cl      -14.74952         1.50655         3.08102
   H        1.62862        -0.27284         2.57551
   H        0.66317        -2.63485        -1.74117
   H        6.07363        -4.00778         0.31360
   H       -4.07765         0.40830         0.92119
   H        2.32791        -4.02778        -2.96898
   H        1.85220        -6.37235        -3.49012
   H        3.20826        -7.51057         0.38963
   H        3.63266        -5.17647         0.93416
   H        5.31402        -4.00476        -2.21414
   H        6.53716        -2.96190        -4.06050
   H        4.15453         0.55207        -3.65803
   H        2.93711        -0.47897        -1.80388
   H       -0.03393         1.37539         3.67453
   H       -0.49491         0.87938         6.03038
   H       -3.15473        -2.23923         4.85551
   H       -2.68084        -1.76198         2.50069
   H       -2.64239         2.11634         2.30849
   H       -2.50270         4.52396         1.86721
   H        1.08300         3.90656        -0.35561
   H        0.94184         1.50300         0.07150
   H       -2.45011        -2.01777         7.19727
   H       -1.34401        -0.72513         7.68449
   H       -0.07886         6.05977        -0.45352
   H       -1.58400         6.31178         0.44188
   H        6.18256         0.57642        -5.03990
   H        7.17930        -0.87735        -5.19691
   H        2.31219        -9.16842        -1.04477
   H        1.33874        -8.69014        -2.44122
   H        4.42170        -0.48201        -6.45655
   H        5.96533        -0.40621        -7.31329
   H        5.41465        -1.93137        -6.61115
   H        4.39253        -8.84016        -2.46492
   H        3.32280       -10.11411        -3.06972
   H        3.35377        -8.52898        -3.84810
   H       -4.26364        -0.33434         6.86481
   H       -3.64558        -0.28563         8.51945
   H       -3.16165         0.95186         7.35460
   H        1.20008         6.11134         1.68960
   H        0.28047         7.60266         1.46081
   H       -0.30063         6.36554         2.58041
   H       -7.56131        -2.11235        -3.33362
   H        9.59035        -4.59994         4.53373
   H        8.58631        -0.29057         3.93355
   H        7.28712        -1.02200         2.96787
   H        7.40620        -0.81898         6.02727
   H        6.32003         0.09180         4.96590
   H        6.12565        -1.65498         5.14512
   H        9.21045        -7.33971         4.42939
   H        7.26496       -12.26585         3.51135
   H        5.35003        -9.41509        -0.09401
   H       -5.82675        -3.77004        -4.01216
   H       -5.71873        -2.28515        -4.99600
   H       -3.38715        -4.16604        -4.35927
   H       -4.23487        -4.06956        -5.91235
   H       -3.27850        -2.69710        -5.32889
   H       -9.55949        -1.36942        -2.28055
   H       -9.90071         1.70486         3.20551
   H      -13.95040         0.25588         0.70402
*
