# ORCA input file
# SCF done       -219.989316217192          0.000685939772
! wb97x-d3 def2-SVP def2/J RIJCOSX Grid4 TightSCF
%maxcore 5000
%tddft
    Mode sTDA
    Ethresh 5.0
    maxcore 5000
end

%pal
  nprocs 6
  end
* xyz 1 2
   C        0.19794        -2.45214         0.28668
   C       -0.96657        -1.71747         0.32649
   C       -0.78569        -0.33516         0.16981
   C        0.55032        -0.00283        -0.02377
   S        1.57051        -1.41093         0.03736
   C       -1.88724         0.62288         0.26889
   C        1.16353         1.26697        -0.25132
   C       -1.72856         1.81804         0.94681
   C       -2.77219         2.74335         0.99052
   C       -3.98576         2.42988         0.40122
   C       -4.16119         1.20403        -0.24298
   C       -3.11068         0.30482        -0.32085
   S        2.73327         1.56043         0.43956
   C        2.75940         3.18391        -0.18988
   C        1.60526         3.44880        -0.89435
   C        0.70501         2.37506        -0.95245
   C       -0.52427         2.43010        -1.74774
   C       -1.34050         3.54892        -1.66741
   C       -2.49946         3.63001        -2.43365
   C       -2.80492         2.61393        -3.33354
   C       -1.96467         1.51034        -3.43973
   C       -0.83890         1.40626        -2.62984
   C        3.86908         4.03594         0.02784
   C        5.03786         3.71275         0.71194
   C        5.93863         4.75355         0.74207
   C        5.49599         5.90927         0.08676
   S        3.89749         5.65812        -0.57530
   C        6.28319         7.06255         0.00447
   C        6.03223         8.27552        -0.59218
   C        6.93730         9.40606        -0.62654
   C        6.26343        10.48274        -1.35588
   C        4.99432        10.03268        -1.75636
   C        4.80190         8.64001        -1.29836
   O        3.81150         7.95600        -1.48028
   C        8.19713         9.48893        -0.09237
   C        9.01727        10.63477        -0.17365
   C        8.86726         8.46521         0.61031
   N        9.48586         7.68891         1.18840
   N        9.73498        11.52987        -0.20524
   C        6.67056        11.76830        -1.67608
   C        5.79331        12.57094        -2.39086
   C        4.53526        12.11430        -2.78343
   C        4.12041        10.83058        -2.46722
   F        3.72090        12.92362        -3.47221
   F        6.16839        13.81493        -2.70942
   C        0.34583        -3.85299         0.42794
   C        1.54082        -4.56577         0.46780
   C        1.34384        -5.92017         0.62036
   C       -0.00314        -6.29598         0.69512
   S       -1.03316        -4.88945         0.56980
   C       -0.39746        -7.62809         0.85582
   C       -1.65271        -8.18498         0.93040
   C       -1.94519        -9.59327         1.10372
   C       -3.40191        -9.74372         1.07561
   C       -3.98393        -8.47596         0.91021
   C       -2.91781        -7.45574         0.82069
   O       -3.08441        -6.25770         0.67998
   C       -1.05372       -10.61983         1.27887
   C       -1.42658       -11.97052         1.44868
   C        0.35111       -10.49676         1.32510
   N        1.49859       -10.48731         1.37446
   N       -1.66131       -13.08505         1.58990
   C       -4.21115       -10.86421         1.17807
   C       -5.58530       -10.68442         1.11170
   C       -6.15283        -9.42089         0.94847
   C       -5.35101        -8.29556         0.84575
   F       -7.48435        -9.29367         0.88876
   F       -6.38271       -11.75427         1.20596
   O       -2.49981         3.91137         1.61855
   O       -5.40690         1.00659        -0.75775
   C       -3.42249         4.97977         1.49207
   C       -2.78949         6.21258         2.11762
   C       -5.76946        -0.26978        -1.24960
   C       -5.37648        -0.47616        -2.70887
   O       -2.17492         0.47684        -4.30052
   O       -3.24479         4.75052        -2.23858
   C       -4.43200         4.95337        -2.98131
   C       -5.62567         4.18708        -2.41766
   C       -3.05605         0.66072        -5.39432
   C       -2.90804        -0.54200        -6.31269
   H       -1.92270        -2.17652         0.50523
   H       -0.80244         2.06482         1.43894
   H       -4.82627         3.10191         0.42626
   H       -3.20220        -0.62732        -0.85250
   H        1.43383         4.39085        -1.38412
   H       -1.11142         4.35322        -0.98800
   H       -3.68987         2.66935        -3.94420
   H       -0.20846         0.53750        -2.72736
   H        5.20162         2.74770         1.15856
   H        6.90251         4.70625         1.21771
   H        7.24257         6.95296         0.49541
   H        7.63041        12.17063        -1.39739
   H        3.14904        10.47260        -2.76869
   H        2.50328        -4.09096         0.39189
   H        2.13749        -6.64414         0.68014
   H        0.44101        -8.31050         0.92462
   H       -3.82523       -11.86218         1.30438
   H       -5.78479        -7.31658         0.71924
   H       -3.63547         5.15679         0.42954
   H       -4.35991         4.73264         2.00915
   H       -1.86134         6.45340         1.60682
   H       -3.46842         7.05676         2.03899
   H       -2.56979         6.02725         3.16548
   H       -5.34581        -1.05770        -0.61658
   H       -6.85945        -0.30055        -1.15549
   H       -5.70342        -1.45836        -3.03949
   H       -4.29958        -0.40097        -2.83584
   H       -5.85776         0.27907        -3.32635
   H       -4.61616         6.02965        -2.91148
   H       -4.27035         4.70571        -4.03732
   H       -5.88085         4.56816        -1.43233
   H       -6.48401         4.31408        -3.07219
   H       -5.40258         3.12761        -2.32153
   H       -4.09482         0.73631        -5.04653
   H       -2.79609         1.58474        -5.92872
   H       -3.16658        -1.45088        -5.77663
   H       -3.56463        -0.43441        -7.17118
   H       -1.88054        -0.62303        -6.65594
*
