# ORCA input file
# SCF done       -192.062039857654          0.000722910908
! wb97x-d3 def2-SVP def2/J RIJCOSX Grid4 TightSCF
%maxcore 5000
%tddft
    Mode sTDA
    Ethresh 5.0
    maxcore 5000
end

%pal
  nprocs 6
  end
* xyz 1 2
   C      -27.61237        28.94708       -20.88315
   C      -27.51937        30.21768       -20.42353
   C      -15.59860        26.60067       -13.08735
   S      -16.15933        28.23000       -12.71517
   C      -17.36242        28.11615       -13.94060
   C      -17.31772        26.86749       -14.59894
   C      -16.31901        26.02214       -14.11562
   C      -18.40795        28.83541       -14.51638
   C      -18.97066        28.00692       -15.51076
   N      -18.28774        26.82045       -15.56596
   S      -19.21454        30.35462       -14.42644
   C      -20.31446        29.86698       -15.71334
   C      -20.04930        28.59344       -16.17585
   C      -24.66058        31.52982       -18.09218
   C      -18.61755        25.68621       -16.38944
   C      -19.64644        24.78089       -15.71512
   C      -25.59506        32.53885       -18.28862
   C      -26.64309        32.12936       -19.11847
   C      -26.56231        30.82836       -19.57552
   S      -25.11238        30.08854       -18.95819
   C       -9.68485        18.72151       -12.64120
   C      -10.46297        19.83520       -12.90056
   C      -10.84823        20.95819       -12.15021
   S      -12.00475        22.02966       -12.92858
   C      -11.96355        23.15377       -11.60896
   C      -11.07674        22.72091       -10.61910
   C      -10.47656        21.50540       -10.93116
   C      -10.81003        23.40370        -9.31324
   C      -11.99081        23.24208        -8.35414
   C      -12.79131        24.30615       -11.67939
   C      -12.82980        25.44462       -10.90258
   C      -13.78815        26.38974       -11.28740
   C      -14.52616        25.98251       -12.38958
   S      -13.99724        24.41138       -12.93710
   C      -13.92223        27.69558       -10.56993
   C      -13.09394        28.78369       -11.25604
   C      -25.57261        33.90330       -17.67285
   C      -26.03194        33.85503       -16.21400
   C      -23.46419        31.49026       -17.31967
   C      -22.83186        32.45896       -16.57479
   C      -21.66032        32.03557       -15.92847
   C      -21.37145        30.70387       -16.16882
   S      -22.57060        29.99531       -17.22350
   C      -20.87446        32.96888       -15.06273
   C      -21.38301        32.93752       -13.62017
   C       -9.34504        17.84914       -13.73105
   C       -8.57919        16.74027       -13.50530
   C       -8.09757        16.36036       -12.17717
   N       -8.50263        17.19677       -11.15000
   C       -9.23992        18.35711       -11.28523
   C      -28.73012        28.67480       -21.79623
   N      -28.87077        27.36173       -22.26351
   C      -28.23299        26.26630       -21.75293
   C      -27.44943        26.52915       -20.46930
   C      -26.65325        27.83664       -20.57473
   O       -9.52196        18.99590       -10.28650
   C       -8.07494        16.83205        -9.80317
   C       -6.73752        17.47375        -9.45775
   O       -7.40417        15.38852       -11.95874
   C       -8.19133        15.88069       -14.55472
   C       -9.78243        18.15803       -15.13173
   C      -25.57055        27.73029       -21.65220
   C      -28.40287        26.61821       -19.38924
   O      -28.31158        25.16859       -22.24720
   C      -29.77602        27.14847       -23.38927
   C      -29.04332        27.30466       -24.71534
   O      -29.48878        29.53614       -22.19001
   N       -7.87736        15.18393       -15.41035
   N      -29.15886        26.71442       -18.53766
   H      -28.30936        30.88683       -20.74837
   H      -16.11478        25.02936       -14.47454
   H      -20.62425        28.13288       -16.95896
   H      -19.00976        26.05782       -17.34002
   H      -17.69756        25.12942       -16.58603
   H      -20.56301        25.33238       -15.51923
   H      -19.87694        23.93594       -16.35781
   H      -19.25829        24.40680       -14.77065
   H      -27.46307        32.77414       -19.38293
   H      -10.86841        19.87817       -13.90401
   H       -9.78043        21.01509       -10.27801
   H       -9.92574        22.94811        -8.86511
   H      -10.59111        24.46085        -9.47311
   H      -12.16129        22.18735        -8.15279
   H      -11.78250        23.74471        -7.41275
   H      -12.89965        23.66084        -8.77989
   H      -12.17363        25.61840       -10.07134
   H      -14.96801        28.00277       -10.52878
   H      -13.56785        27.56841        -9.54495
   H      -13.42956        28.93206       -12.27912
   H      -13.19391        29.72409       -10.72078
   H      -12.04317        28.50277       -11.27525
   H      -24.57232        34.33338       -17.74262
   H      -26.24843        34.54836       -18.23727
   H      -25.40040        33.18909       -15.63087
   H      -25.99503        34.84835       -15.77315
   H      -27.05435        33.48903       -16.15702
   H      -23.18503        33.46799       -16.48356
   H      -19.81583        32.70758       -15.08313
   H      -20.97995        33.98190       -15.45736
   H      -21.28700        31.93814       -13.20346
   H      -20.80767        33.62435       -13.00509
   H      -22.43055        33.22851       -13.58178
   H      -26.79205        25.67151       -20.28994
   H      -26.17176        28.02296       -19.60949
   H       -8.84971        17.16696        -9.11108
   H       -7.98971        15.74433        -9.77696
   H       -6.81773        18.55769        -9.50145
   H       -6.44151        17.18431        -8.45337
   H       -5.97306        17.14319       -10.15702
   H       -9.42212        19.13749       -15.44327
   H       -9.38935        17.41328       -15.81905
   H      -10.86965        18.14848       -15.20627
   H      -25.01184        28.66144       -21.70427
   H      -24.87875        26.92471       -21.41712
   H      -26.01225        27.53578       -22.62747
   H      -30.18451        26.14089       -23.29595
   H      -30.57506        27.88676       -23.30406
   H      -28.24502        26.56990       -24.79386
   H      -29.73802        27.15216       -25.53622
   H      -28.62075        28.30388       -24.79709
*
