# ORCA input file
# SCF done       -196.934919114248          0.000534232327
! wb97x-d3 def2-SVP def2/J RIJCOSX Grid4 TightSCF
%maxcore 5000
%tddft
    Mode sTDA
    Ethresh 5.0
    maxcore 5000
end

%pal
  nprocs 6
  end
* xyz 1 2
   C        2.19483        -2.46668        -0.23680
   C        2.41035        -1.95815         1.06640
   C        1.52226        -1.06882         1.66862
   C        0.39485        -0.71842         0.96205
   C        0.15341        -1.27898        -0.31648
   C        1.06118        -2.13328        -0.93813
   C        3.30855        -3.41255        -0.64143
   C        4.13174        -3.43686         0.61634
   C        3.59760        -2.57554         1.56716
   C        5.23906        -4.12843         1.07966
   C        5.55451        -3.80430         2.39469
   S        4.47097        -2.59260         3.04541
   C       -0.75569         0.17895         1.38265
   C       -1.73422        -0.06633         0.26321
   C       -1.15539        -0.86707        -0.70981
   C       -3.04436         0.29013        -0.02973
   C       -3.48998        -0.25757        -1.22185
   S       -2.22491        -1.20540        -2.00151
   C        6.56106        -4.39690         3.21041
   C       -4.79201        -0.21166        -1.80939
   C        2.77059        -4.81076        -0.99425
   C        4.10934        -2.85107        -1.83231
   C        7.37075        -5.44441         2.77673
   C        8.27416        -6.07936         3.61150
   C        8.44733        -5.70883         4.94344
   C        7.67948        -4.59405         5.41443
   C        6.74425        -3.95607         4.55760
   C       -5.09890        -1.00938        -2.90850
   C       -6.36694        -1.09027        -3.45502
   C       -7.43286        -0.35862        -2.94142
   C       -7.14868         0.53465        -1.85608
   C       -5.84508         0.60976        -1.28889
   C        9.30277        -6.33509         5.89669
   C       10.06456        -7.46201         5.87506
   C       -8.78897        -0.41119        -3.38111
   C       -9.45596        -1.19473        -4.27026
   C       -9.04733        -2.29873        -5.13376
   N      -10.14086        -2.82529        -5.81298
   C      -11.34631        -2.24632        -5.57624
   S      -11.19372        -0.92562        -4.44701
   C       10.31271        -8.48070         4.85994
   N       11.11691        -9.49627         5.36585
   C       11.52598        -9.36949         6.65469
   S       10.92495        -7.89064         7.35781
   C       11.41862       -10.63155         4.51270
   O        9.91524        -8.50858         3.71345
   C       12.31092       -10.22145         7.39142
   O       -7.93261        -2.74946        -5.29660
   C       -9.93325        -3.97464        -6.67541
   C      -12.57024        -2.56999        -6.10720
   C       10.45170       -11.78457         4.75416
   C      -10.23697        -5.27997        -5.94978
   N        7.83241        -4.15866         6.67797
   C        7.10306        -3.15078         7.08110
   C        6.17127        -2.52662         6.23599
   N        6.00760        -2.92977         5.00321
   N       -8.14158         1.30185        -1.37001
   C       -7.87679         2.11426        -0.38138
   C       -6.58963         2.19617         0.17093
   N       -5.60550         1.45961        -0.27529
   C       -1.33388        -0.20993         2.75049
   C       12.63016        -9.88565         8.72402
   C       12.85318       -11.44659         6.96888
   C      -13.70540        -1.82238        -5.72901
   C      -12.84879        -3.60430        -7.01624
   N      -13.15029        -4.43419        -7.75131
   N      -14.63657        -1.22389        -5.42823
   N       12.89595        -9.62444         9.80889
   N       13.32000       -12.45984         6.69467
   C       -0.36174         1.67402         1.33081
   C        1.95987        -5.43763         0.13353
   C        4.67886        -1.46304        -1.56611
   C       -1.84156        -1.64706         2.78145
   C        0.75470         2.09221         2.27794
   H        1.71388        -0.70994         2.66778
   H        0.85119        -2.53294        -1.91875
   H        5.79103        -4.84723         0.50201
   H       -3.68140         0.89852         0.58353
   H        2.14760        -4.73038        -1.88705
   H        3.61733        -5.45690        -1.23516
   H        4.92526        -3.54133        -2.05689
   H        3.45268        -2.81213        -2.70375
   H        7.28256        -5.79664         1.76134
   H        8.85034        -6.90035         3.21917
   H       -4.31636        -1.61722        -3.33948
   H       -6.53300        -1.75357        -4.28671
   H        9.30688        -5.80351         6.84330
   H       -9.40816         0.31399        -2.86206
   H       11.31274       -10.27076         3.48581
   H       12.44988       -10.94406         4.68165
   H      -10.55119        -3.87055        -7.56822
   H       -8.87767        -3.94827        -6.95995
   H        9.43024       -11.46356         4.56223
   H       10.69375       -12.60237         4.08224
   H       10.52451       -12.14971         5.77586
   H      -11.27881        -5.32404        -5.64132
   H      -10.04390        -6.11439        -6.61711
   H       -9.60099        -5.37802        -5.07274
   H        7.25400        -2.82210         8.10029
   H        5.56142        -1.69719         6.56481
   H       -8.69570         2.71928        -0.01669
   H       -6.35928         2.87237         0.98322
   H       -0.56228        -0.09004         3.51142
   H       -2.15379         0.47105         2.98790
   H       -0.05723         1.90496         0.30661
   H       -1.25847         2.25865         1.54833
   H        1.10203        -4.81639         0.38125
   H        1.59938        -6.41860        -0.16659
   H        2.56834        -5.55431         1.02744
   H        5.35288        -1.47940        -0.71271
   H        5.23330        -1.11498        -2.43439
   H        3.88107        -0.75309        -1.35961
   H       -1.03897        -2.34219         2.54394
   H       -2.22324        -1.88771         3.77083
   H       -2.64380        -1.78972         2.06100
   H        1.67897         1.57199         2.04181
   H        0.93196         3.16049         2.17417
   H        0.49206         1.89467         3.31366
*
