# ORCA input file
# SCF done       -350.775774725878          0.000497081832
! wb97x-d3 def2-SVP def2/J RIJCOSX Grid4 TightSCF
%maxcore 5000
%tddft
    Mode sTDA
    Ethresh 5.0
    maxcore 5000
end

%pal
  nprocs 6
  end
* xyz 1 2
   C        4.24547         0.16680        -0.66140
   C        3.35931        -0.82874        -0.18450
   C        5.54914        -0.40936        -0.68261
   C        5.51015        -1.73764        -0.25304
   C        4.09911        -2.12207         0.11247
   C        3.51581        -3.21778        -0.76096
   C        4.09388        -2.51549         1.57955
   C        4.02721        -3.47812        -2.02418
   C        3.45797        -4.45215        -2.82365
   C        2.35897        -5.18051        -2.38955
   C        1.84395        -4.90787        -1.12878
   C        2.41100        -3.93802        -0.32449
   C        3.68672        -1.64293         2.57735
   C        3.74075        -2.02610         3.90601
   C        4.21395        -3.27831         4.27081
   C        4.63141        -4.14379         3.26694
   C        4.57622        -3.76876         1.93933
   C        1.77453        -6.27156        -3.23935
   C        2.45556        -7.60720        -2.93362
   C        4.23054        -3.70690         5.70977
   C        2.91867        -4.40493         6.07450
   S        7.12676         0.10682        -1.06974
   C        7.76919        -1.48629        -0.63307
   C        6.74991        -2.34410        -0.22003
   C        9.15612        -1.63726        -0.75844
   C        9.99987        -2.68271        -0.46377
   C        9.67305        -3.99020         0.13771
   C       10.97196        -4.66658         0.34930
   C       12.01406        -3.85179        -0.11874
   C       11.43771        -2.62200        -0.66087
   O        8.59006        -4.46155         0.42030
   C       12.16364        -1.62813        -1.26708
   C       11.65780        -0.44774        -1.85210
   C       13.56695        -1.65393        -1.41565
   N       11.35130         0.53487        -2.36279
   N       14.70301        -1.60084        -1.57235
   C       11.20657        -5.90234         0.91536
   C       12.52120        -6.33773         1.02180
   C       13.56771        -5.53226         0.56200
   C       13.32437        -4.28849        -0.01075
   C      -11.35650         7.91752         2.30916
   C      -12.10646         9.04694         2.11295
   C      -13.13622         9.41588         3.11373
   C      -13.49236        10.81986         2.79900
   C      -12.81913        11.22243         1.63158
   C      -12.06066        10.08470         1.11332
   O      -13.55879         8.73049         4.01654
   C      -11.63056         9.94752        -0.18346
   C      -11.20474         8.71861        -0.72162
   C      -11.64733        10.97996        -1.14054
   N      -10.90316         7.72518        -1.21224
   N      -11.60469        11.79202        -1.95129
   C      -14.32696        11.67787         3.48398
   C      -14.48429        12.97137         2.99948
   C      -13.80899        13.38129         1.84553
   C      -12.97674        12.51009         1.15022
   C        3.80665         1.44763        -0.99472
   C        2.47091         1.71740        -0.82489
   C        1.58112         0.71722        -0.36163
   C        2.01596        -0.56727        -0.04662
   C        1.73461         3.02278        -1.07799
   C        0.33374         2.63805        -0.68385
   C        0.28758         1.31645        -0.27710
   C        2.16476         4.16280        -0.17250
   C        1.88354         3.38119        -2.54446
   C       -0.90387         3.26465        -0.54528
   C       -1.88929         2.39329        -0.04070
   S       -1.27617         0.79748         0.26056
   S       -1.50711         4.87175        -0.80440
   C       -3.05580         4.36699        -0.21234
   C       -3.11247         3.03327         0.15083
   C       -4.30048         5.01470         0.05583
   C       -5.17249         4.03204         0.58548
   C       -4.49027         2.67534         0.63944
   C       -5.06684         1.66636        -0.33981
   C       -4.52296         2.15827         2.06376
   C       -4.68972         6.34371        -0.08553
   C       -5.95528         6.67683         0.33781
   C       -6.82276         5.69653         0.87650
   C       -6.43859         4.36234         1.00259
   C       -6.61957         8.04244         0.31576
   C       -7.97319         7.71212         0.89188
   C       -8.03651         6.35912         1.22362
   C       -5.96561         9.05553         1.23913
   C       -6.66813         8.53478        -1.11955
   C       -9.12760         8.40390         1.20372
   C      -10.09548         7.58633         1.78754
   S       -9.51837         5.93244         1.95417
   C        2.87832         3.94146         0.99624
   C        3.20382         4.99864         1.82711
   C        2.81335         6.29512         1.52200
   C        2.08714         6.50837         0.35701
   C        1.76410         5.45780        -0.47918
   C        0.94315         2.98306        -3.48327
   C        1.11880         3.28344        -4.82182
   C        2.24034         3.97501        -5.25755
   C        3.18286         4.36428        -4.31405
   C        3.01005         4.07102        -2.97541
   C       -5.92077         2.04355        -1.36580
   C       -6.38863         1.10264        -2.26549
   C       -6.00739        -0.22877        -2.17276
   C       -5.14084        -0.59720        -1.15129
   C       -4.67309         0.33675        -0.24762
   C       -5.62077         1.43623         2.51510
   C       -5.67955         0.99384         3.82254
   C       -4.64888         1.26241         4.71420
   C       -3.55819         1.99084         4.26019
   C       -3.49684         2.44055         2.95402
   C       -5.06437         8.67749         2.22349
   C       -4.52117         9.62301         3.07492
   C       -4.87199        10.96204         2.97561
   C       -5.78609        11.33292         1.99718
   C       -6.32981        10.39359         1.14291
   C       -7.74555         8.23328        -1.94035
   C       -7.77203         8.67396        -3.25037
   C       -6.71851         9.40677        -3.77984
   C       -5.63063         9.68221        -2.96139
   C       -5.60156         9.25072        -1.64868
   C        3.20765         7.44593         2.40200
   C        4.54830         8.02791         1.94925
   C        2.40831         4.33948        -6.70423
   C        1.80830         5.71978        -6.97989
   C       -6.55837        -1.25282        -3.12246
   C       -7.87850        -1.81557        -2.59148
   C       -4.69141         0.73390         6.11885
   C       -4.06911        -0.66248         6.18228
   C       -4.24175        11.99022         3.86993
   C       -2.95095        12.52231         3.24377
   C       -6.78111         9.93310        -5.18422
   C       -7.47904        11.29464        -5.20912
  Cl       12.85895        -7.86920         1.72264
  Cl       15.19049        -6.07883         0.70316
  Cl      -14.00362        14.98702         1.26722
  Cl      -15.51415        14.06964         3.82670
   H        4.87855        -2.92161        -2.38812
   H        3.87386        -4.64627        -3.80205
   H        0.98675        -5.46122        -0.77208
   H        2.00029        -3.74807         0.65670
   H        3.32258        -0.65838         2.32210
   H        3.41445        -1.33534         4.67076
   H        5.01020        -5.12117         3.52858
   H        4.90484        -4.45500         1.17309
   H        0.70388        -6.36034        -3.04414
   H        1.91100        -6.03165        -4.29573
   H        2.31776        -7.87113        -1.88744
   H        2.03621        -8.39872        -3.55029
   H        3.52308        -7.54089        -3.13116
   H        5.06244        -4.39273         5.88138
   H        4.36631        -2.83625         6.35459
   H        2.77201        -5.28376         5.45056
   H        2.92973        -4.71634         7.11639
   H        2.07722        -3.73267         5.92141
   H        6.94397        -3.35517         0.08465
   H        9.63886        -0.74681        -1.14341
   H       10.38784        -6.51073         1.26570
   H       14.15885        -3.69849        -0.35142
   H      -11.76628         7.22584         3.03897
   H      -14.84477        11.35136         4.37188
   H      -12.46985        12.85658         0.26404
   H        4.50082         2.19110        -1.35433
   H        1.32177        -1.31423         0.30609
   H       -4.01372         7.07749        -0.49639
   H       -7.11384         3.63017         1.41741
   H       -9.26251         9.46163         1.06770
   H        3.18561         2.94019         1.26108
   H        3.76648         4.80966         2.73039
   H        1.76683         7.50853         0.10268
   H        1.20085         5.64309        -1.38236
   H        0.06529         2.43555        -3.17167
   H        0.37278         2.97032        -5.53837
   H        4.06484         4.90176        -4.63194
   H        3.74994         4.39218        -2.25654
   H       -6.22620         3.07472        -1.46605
   H       -7.05812         1.41222        -3.05527
   H       -4.82512        -1.62695        -1.06365
   H       -4.00093         0.03192         0.54165
   H       -6.42854         1.20816         1.83473
   H       -6.54024         0.43196         4.15643
   H       -2.74607         2.21397         4.93757
   H       -2.64112         3.01464         2.62877
   H       -4.77990         7.64067         2.32817
   H       -3.81572         9.31131         3.83207
   H       -6.07733        12.36956         1.90480
   H       -7.03394        10.70143         0.38310
   H       -8.57877         7.66187        -1.55937
   H       -8.62801         8.44213        -3.86717
   H       -4.79521        10.24388        -3.35518
   H       -4.75015         9.48642        -1.02607
   H        2.44377         8.22485         2.35666
   H        3.29280         7.10949         3.43726
   H        4.48006         8.38003         0.92235
   H        4.83531         8.86250         2.58460
   H        5.32616         7.26929         1.99942
   H        3.46919         4.35062        -6.96211
   H        1.91101         3.59850        -7.33324
   H        2.30088         6.47472        -6.37109
   H        1.92908         5.98500        -8.02755
   H        0.74744         5.72571        -6.73945
   H       -6.72944        -0.79727        -4.09994
   H       -5.84239        -2.06797        -3.24497
   H       -8.60915        -1.01844        -2.47390
   H       -8.28039        -2.55672        -3.27831
   H       -7.72643        -2.28578        -1.62236
   H       -4.14184         1.40342         6.78360
   H       -5.72592         0.68260         6.46403
   H       -3.03319        -0.63010         5.85202
   H       -4.09843        -1.04669         7.19920
   H       -4.61228        -1.34809         5.53570
   H       -4.93405        12.81967         4.02669
   H       -4.01391        11.54627         4.84114
   H       -3.15967        12.98176         2.28015
   H       -2.49215        13.26577         3.89130
   H       -2.24322        11.71073         3.08967
   H       -5.77194        10.03672        -5.58838
   H       -7.33363         9.23490        -5.81608
   H       -6.93228        12.01098        -4.59978
   H       -7.53534        11.67509        -6.22632
   H       -8.48828        11.20986        -4.81274
*
