# ORCA input file
# SCF done       -190.244243181403          0.000536920529
! wb97x-d3 def2-SVP def2/J RIJCOSX Grid4 TightSCF
%maxcore 5000
%tddft
    Mode sTDA
    Ethresh 5.0
    maxcore 5000
end

%pal
  nprocs 6
  end
* xyz 1 2
   C        3.53789        -3.07487        -3.11505
   O        2.80286        -3.85266        -2.51801
   C        3.98888        -3.20393        -4.51135
   C        3.68456        -4.18202        -5.43529
   C        4.23186        -4.07651        -6.70833
   C        5.06783        -3.00197        -7.02945
   C        5.37272        -2.01892        -6.09238
   C        4.82938        -2.11984        -4.82345
   C        4.95123        -1.26358        -3.64244
   C        5.72260        -0.13285        -3.56473
   C        5.86764         0.68963        -2.42773
   N        6.04062         1.40906        -1.54876
   C        6.50229         0.36721        -4.62969
   N        7.15950         0.82724        -5.45035
   C        4.12974        -1.85010        -2.60208
   C        3.91869        -1.31565        -1.34915
   C        3.15551        -1.76463        -0.27000
  Se        2.13644        -3.37433        -0.19288
   C        1.67075        -2.87340         1.54187
   C        2.25617        -1.63917         1.88656
   C        3.06166        -1.03430         0.93093
   C        3.77888         0.24472         1.22313
   C        5.20473        -0.03217         1.70868
   S        1.81850        -1.06662         3.48762
   C        0.83064        -2.46651         3.68207
   C        0.86898        -3.34229         2.58861
   N        0.03328        -4.40546         2.81609
   C       -0.36407        -5.26748         1.72396
   C        0.71943        -6.26922         1.33246
   C       -0.56467        -4.21345         4.04584
   C       -0.09953        -2.98197         4.59496
   C       -0.66338        -2.44330         5.77021
   N       -0.35026        -1.32759         6.41177
   S       -1.37199        -1.14465         7.65150
   N       -2.25934        -2.47095         7.42281
   C       -1.78452        -3.11795         6.36572
   C       -2.20240        -4.34816         5.83631
   C       -1.52545        -4.95967         4.77162
   N       -1.99716        -6.26549         4.58787
   C       -1.25461        -7.36018         3.99515
   C       -1.10209        -8.52377         4.96870
   C       -3.03904        -6.46647         5.42191
   C       -3.18557        -5.28889         6.33993
   S       -5.00575        -5.10056         6.41738
   C       -4.90269        -6.94614         6.53856
   C       -3.93208        -7.44866         5.75954
  Se       -2.75010        -5.92128         8.34710
   C       -4.52897        -6.48286         8.80957
   C       -5.29717        -7.43971         7.88198
   C       -4.83756        -8.89493         8.08670
   C       -5.14758        -9.42687         9.47930
   C       -5.08778        -5.99090         9.92923
   C       -6.45989        -6.30348        10.19937
   C       -7.33859        -5.96663        11.28669
   C       -7.00538        -5.34288        12.45891
   C       -7.92988        -5.02983        13.47607
   N       -8.64258        -4.75309        14.33194
   C       -5.68880        -4.95271        12.78447
   N       -4.63288        -4.63026        13.09664
   C       -8.67860        -6.43118        10.89526
   C       -9.89560        -6.38198        11.53770
   C      -11.01403        -6.91678        10.89230
   C      -10.90995        -7.49216         9.62697
   C       -9.68095        -7.54931         8.97268
   C       -8.58124        -7.01861         9.61192
   C       -7.19049        -6.93438         9.20888
   O       -6.72737        -7.38075         8.06229
  Cl      -12.30262        -8.14052         8.85748
  Cl        3.87618        -5.27107        -7.88933
  Cl        5.73501        -2.88164        -8.60667
  Cl      -12.53609        -6.85538        11.68570
   H        3.03777        -5.00475        -5.17504
   H        6.01954        -1.20609        -6.37872
   H        4.42123        -0.37662        -1.15837
   H        3.81424         0.89153         0.34552
   H        3.23297         0.77025         2.00966
   H        5.77762        -0.55612         0.94717
   H        5.70524         0.90609         1.92881
   H        5.18585        -0.63967         2.61053
   H       -1.29422        -5.76835         1.99105
   H       -0.56283        -4.62607         0.85457
   H        1.03149        -6.88522         2.17156
   H        0.34233        -6.91655         0.54615
   H        1.59654        -5.74719         0.95069
   H       -1.76392        -7.71023         3.09058
   H       -0.26778        -6.97943         3.73768
   H       -2.07286        -8.94949         5.20857
   H       -0.48047        -9.29143         4.51661
   H       -0.63406        -8.18737         5.89151
   H       -5.32671        -9.50997         7.32992
   H       -3.76099        -8.92265         7.90969
   H       -6.22017        -9.44592         9.66295
   H       -4.76976       -10.44162         9.57327
   H       -4.67229        -8.81305        10.24222
   H       -4.52876        -5.33943        10.58301
   H      -10.01348        -5.94512        12.51600
   H       -9.60017        -7.99360         7.99388
*
