# ORCA input file
# SCF done       -182.809778830911          0.000308361972
! wb97x-d3 def2-SVP def2/J RIJCOSX Grid4 TightSCF
%maxcore 5000
%tddft
    Mode sTDA
    Ethresh 5.0
    maxcore 5000
end

%pal
  nprocs 6
  end
* xyz 1 2
   C       -4.33823         1.47897         0.19005
   C       -3.10491         1.99267        -0.25729
   C       -1.97519         1.19640        -0.11098
   C       -2.01802        -0.11776         0.43836
   C       -3.24657        -0.61983         0.91019
   C       -4.37799         0.16961         0.74821
   S       -0.34672         1.71069        -0.53951
   C        0.26446         0.16644        -0.08207
   C       -0.71859        -0.71220         0.41629
   C        1.48375        -0.49952        -0.09854
   C        1.20649        -1.79969         0.39346
   N       -0.12702        -1.92078         0.69138
   S        3.13398        -0.28663        -0.53299
   C        3.46193        -1.95862        -0.06733
   C        2.32232        -2.61558         0.41180
   S       -6.00893        -0.37131         1.13288
   C       -6.63630         1.14322         0.60146
   C       -5.65038         2.04607         0.14861
   C       -7.87288         1.76330         0.49287
   C       -7.60903         3.05782        -0.01960
   N       -6.26113         3.22196        -0.20474
   S       -9.54884         1.50933         0.75414
   C       -9.89915         3.14371         0.14694
   C       -8.74531         3.83079        -0.20774
   O       -3.23458        -1.87005         1.45149
   O       -3.12195         3.25359        -0.76953
   C       -2.30800         3.61866        -1.87712
   C       -2.44837         2.68157        -3.06816
   C       -4.02188        -2.18098         2.59475
   C       -3.84720        -1.19209         3.73842
   C       -5.73082         4.47954        -0.67764
   C       -5.89578         4.61751        -2.18858
   C       -0.66586        -3.15243         1.21620
   C       -0.44932        -3.25074         2.72420
   C        4.68945        -2.62435        -0.17111
   C        5.90819        -2.19657        -0.63809
   C        6.21752        -0.84681        -1.11918
   C        7.64345        -0.87101        -1.50742
   C        8.16666        -2.15569        -1.27984
   C        7.10567        -3.00666        -0.73922
   C        8.40930         0.15597        -2.01917
   C        9.73479        -0.13680        -2.30392
   C       10.28004        -1.39371        -2.09035
   C        9.49721        -2.41608        -1.57467
   C      -11.25348         3.50829         0.12330
   C      -11.89177         4.60777        -0.39765
   C      -11.33551         5.68087        -1.24434
   C      -12.50215         6.45001        -1.73054
   C      -13.68176         5.92692        -1.17730
   C      -13.32683         4.81548        -0.29684
   C      -12.50938         7.52308        -2.59832
   C      -13.74671         8.06620        -2.90843
   C      -14.92931         7.56726        -2.38327
   C      -14.90549         6.49071        -1.50938
   O      -10.17791         5.91804        -1.52936
   F      -13.80603         9.11237        -3.75012
   C      -14.20549         4.15495         0.52190
   C      -15.59130         4.41717         0.56757
   C      -13.87631         3.15799         1.46553
   N      -16.72577         4.57122         0.65213
   N      -13.70255         2.36174         2.27501
   O        5.47148         0.11178        -1.18933
   F       10.52181         0.82996        -2.80513
   C        7.24894        -4.33137        -0.41325
   C        8.45058        -5.05707        -0.55497
   C        6.23979        -5.17185         0.10062
   N        5.48009        -5.92635         0.51824
   N        9.39174        -5.70864        -0.64346
   H        2.35250        -3.63966         0.73859
   H       -8.77196         4.83345        -0.59048
   H       -2.67595         4.61526        -2.13684
   H       -1.25785         3.70933        -1.58119
   H       -3.49453         2.57104        -3.34487
   H       -1.90333         3.09312        -3.91232
   H       -2.04516         1.69784        -2.84200
   H       -3.65396        -3.16795         2.88875
   H       -5.08014        -2.27679         2.33006
   H       -4.25320        -0.21786         3.47780
   H       -4.37109        -1.56223         4.61454
   H       -2.79367        -1.07310         3.98228
   H       -6.28456         5.27741        -0.17386
   H       -4.68238         4.54409        -0.39696
   H       -6.94743         4.58624        -2.46281
   H       -5.47972         5.56470        -2.51945
   H       -5.37891         3.80991        -2.69980
   H       -1.72592        -3.20319         0.97855
   H       -0.14965        -3.97499         0.71276
   H       -0.96246        -2.43785         3.23046
   H       -0.83804        -4.19506         3.09446
   H        0.61039        -3.19212         2.96228
   H        4.63861        -3.65205         0.16762
   H        7.99715         1.13761        -2.18976
   H       11.31773        -1.56398        -2.33031
   H        9.93398        -3.38752        -1.41343
   H      -11.89705         2.76258         0.57554
   H      -11.59713         7.91905        -3.01505
   H      -15.86382         8.02708        -2.66363
   H      -15.83143         6.11057        -1.11126
*
