# ORCA input file
# SCF done       -107.467171967107          0.000953309913
! wb97x-d3 def2-SVP def2/J RIJCOSX Grid4 TightSCF
%maxcore 5000
%tddft
    Mode sTDA
    Ethresh 5.0
    maxcore 5000
end

%pal
  nprocs 6
  end
* xyz 1 2
   C       -1.36869        -0.74101         0.02776
   C       -1.36943         0.61866        -0.25463
   C       -0.22557         1.40549        -0.19568
   C        0.97391         0.73506         0.16837
   C        0.97614        -0.67804         0.45444
   C       -0.22286        -1.43926         0.38880
   N        2.19032         1.26360         0.28810
   S        3.22755         0.11379         0.71356
   N        2.19423        -1.11429         0.76964
   C       -0.25573         2.80713        -0.48519
   C       -0.25112        -2.84013         0.68232
   S       -1.74822        -3.72558         0.65441
   C       -0.93852        -5.20093         1.09585
   C        0.42370        -4.98327         1.24502
   C        0.80538        -3.66881         1.01665
   C        0.77993         3.72218        -0.41689
   C        0.40056         5.01073        -0.76572
   C       -0.93755         5.12095        -1.11605
   S       -1.72928         3.57636        -0.99707
   C       -1.59723         6.29739        -1.52484
   C       -2.89501         6.43673        -1.89658
   S       -4.11366         5.19091        -1.96846
   C       -5.32324         6.34203        -2.54186
   N       -4.78629         7.58153        -2.64848
   C       -3.44987         7.72533        -2.31382
   O       -2.85466         8.77802        -2.36355
   C       -5.54996         8.71522        -3.13318
   C       -5.57259         8.75180        -4.65558
   S       -6.86622         5.93818        -2.87611
   C       -1.60766        -6.42792         1.27683
   C       -2.93562        -6.67999         1.15694
   C       -3.49558        -8.01159         1.39297
   N       -4.86978        -7.98700         1.22071
   C       -5.43081        -6.80344         0.87316
   S       -4.19478        -5.54952         0.73479
   S       -7.01912        -6.53693         0.62405
   C       -5.65361        -9.19701         1.37952
   C       -5.90842        -9.86997         0.03683
   O       -2.87560        -9.00310         1.70378
   H       -2.30144        -1.28216        -0.03563
   H       -2.30262         1.08849        -0.52896
   H        1.10453        -5.77059         1.51554
   H        1.81340        -3.30424         1.08597
   H        1.77168         3.43666        -0.11929
   H        1.06682         5.85471        -0.77105
   H       -1.00228         7.20303        -1.55397
   H       -6.56479         8.63441        -2.73756
   H       -5.06145         9.60817        -2.73701
   H       -6.04633         7.85543        -5.04827
   H       -6.13531         9.61822        -4.98945
   H       -4.55996         8.81948        -5.04601
   H       -0.99439        -7.27845         1.55123
   H       -5.07461        -9.85462         2.03233
   H       -6.59861        -8.92845         1.85782
   H       -4.96583       -10.12446        -0.44227
   H       -6.47987       -10.78042         0.19069
   H       -6.47371        -9.20939        -0.61616
*
