# ORCA input file
# SCF done       -180.687099540356          0.000435009680
! wb97x-d3 def2-SVP def2/J RIJCOSX Grid4 TightSCF
%maxcore 5000
%tddft
    Mode sTDA
    Ethresh 5.0
    maxcore 5000
end

%pal
  nprocs 6
  end
* xyz 1 2
   C       -6.14170        -3.06577        -0.86335
   O       -7.04330        -2.25563        -0.72658
   C       -6.25078        -4.39043        -1.50192
   C       -7.35791        -4.99158        -2.06632
   C       -7.20738        -6.25797        -2.61452
   C       -5.97417        -6.89196        -2.58965
   C       -4.85821        -6.28921        -2.02225
   C       -4.99664        -5.02494        -1.47250
   C       -4.03523        -4.13732        -0.81614
   C       -2.70498        -4.41715        -0.62940
   C       -1.76019        -3.57184        -0.01223
   N       -0.92789        -2.94546         0.47418
   C       -2.08008        -5.61223        -1.04301
   N       -1.50332        -6.55687        -1.34911
   C       -4.74712        -2.93519        -0.43426
   C       -4.19637        -1.86436         0.22853
   C       -4.75061        -0.64436         0.62356
   S       -6.41086        -0.13633         0.30759
   C       -6.10743         1.38088         1.06552
   C       -4.78841         1.46982         1.54598
   C       -4.01549         0.34366         1.30334
   S       -4.41893         3.00428         2.30730
   C       -6.02898         3.53111         1.95353
   C       -6.81563         2.56130         1.31262
   N       -8.05597         3.07502         1.04590
   C       -8.97999         2.43527         0.13629
   C       -9.63513         1.19414         0.73728
   C       -8.06936         4.38092         1.48590
   C       -6.79840         4.69863         2.04685
   C       -6.52178         6.01972         2.44776
   N       -5.45734         6.60551         3.00249
   N       -5.78232         7.87262         3.05414
   C       -4.92949         8.85747         3.65391
   C       -5.57551         9.39227         4.92826
   N       -6.95587         8.20108         2.58500
   C       -7.48371         7.04073         2.18963
   C       -8.74231         6.70456         1.67436
   C       -9.07586         5.37155         1.42406
   N      -10.43102         5.23845         1.08157
   C      -11.29461         4.23742         1.69013
   C      -12.38494         3.78530         0.72707
   C      -10.95393         6.54058         1.01700
   C       -9.89544         7.54814         1.39452
   S      -10.34394         7.60117        -0.38820
   C      -12.75630         8.05255         1.77114
   C      -12.22152         7.00364         1.44613
   S      -10.06573         8.96983         2.52774
   C      -11.58495         9.94345         2.32050
   C      -12.83174         9.40434         2.09079
   C      -11.40750        11.35532         2.37452
   C      -10.38270        12.08686         2.89633
   C      -10.16791        13.50620         2.67315
   C      -10.83355        14.30715         1.78269
   C      -10.56590        15.68032         1.59506
   N      -10.40912        16.79967         1.39481
   C      -11.87031        13.89129         0.92051
   N      -12.71423        13.63670         0.18349
   C       -9.05562        13.92464         3.52300
   C       -8.44276        15.15692         3.69413
   C       -7.38567        15.25300         4.58919
   C       -6.94241        14.15224         5.30880
   C       -7.55236        12.91612         5.15033
   C       -8.59805        12.81401         4.25352
   C       -9.40709        11.62702         3.91635
   O       -9.35507        10.54294         4.45407
   C       -2.60052         0.21711         1.76460
   C       -2.52611        -0.54147         3.09255
   C      -14.12270        10.15578         2.02056
   C      -14.45554        10.51650         0.56806
   H       -8.30753        -4.47883        -2.07434
   H       -8.05474        -6.75378        -3.06372
   H       -5.87398        -7.87698        -3.02031
   H       -3.91370        -6.80778        -2.01810
   H       -3.15287        -1.96276         0.49446
   H       -9.72376         3.17455        -0.15942
   H       -8.42253         2.13543        -0.75849
   H       -8.89529         0.41630         0.90311
   H      -10.11892         1.41459         1.68572
   H      -10.38140         0.81028         0.04777
   H       -3.97424         8.37183         3.85882
   H       -4.78802         9.67109         2.93716
   H       -5.64807         8.60563         5.67550
   H       -4.98104        10.20715         5.33215
   H       -6.57755         9.75014         4.70157
   H      -10.67255         3.40119         2.00322
   H      -11.76169         4.66296         2.59071
   H      -11.95909         3.35109        -0.17367
   H      -13.01344         3.04179         1.20973
   H      -13.00675         4.62966         0.43856
   H      -12.19369        11.91194         1.88100
   H       -8.77008        16.03064         3.15499
   H       -6.90228        16.20838         4.72783
   H       -6.11854        14.26127         5.99800
   H       -7.22866        12.04899         5.70494
   H       -1.98867        -0.29539         1.02060
   H       -2.19742         1.22204         1.90520
   H       -2.92373        -1.54788         2.98430
   H       -1.49217        -0.61313         3.41770
   H       -3.09884        -0.02188         3.85728
   H      -14.91124         9.50989         2.41448
   H      -14.08616        11.05697         2.63283
   H      -14.46247         9.62326        -0.05251
   H      -15.43584        10.98319         0.52024
   H      -13.72558        11.21268         0.16202
*
