# ORCA input file
# SCF done       -240.278693851859          0.000869091733
! wb97x-d3 def2-SVP def2/J RIJCOSX Grid4 TightSCF
%maxcore 5000
%tddft
    Mode sTDA
    Ethresh 5.0
    maxcore 5000
end

%pal
  nprocs 6
  end
* xyz -1 2
   C        0.00465         1.30871         0.21182
   C       -0.19838         1.57906        -1.11738
   C        0.66426         2.37764        -1.96632
   C        0.10009         2.34422        -3.31657
   C       -1.07531         1.57273        -3.29856
   C       -1.31177         1.07670        -1.93138
   O       -2.24886         0.39039        -1.56337
   C        1.80541         3.04575        -1.60491
   C        2.59889         3.80015        -2.49514
   N        3.29340         4.42817        -3.15947
   C        2.36377         3.08927        -0.31030
   N        2.88540         3.17870         0.70959
   C        0.52645         2.90952        -4.50794
   C       -0.22929         2.69247        -5.65340
   C       -1.38831         1.93090        -5.62527
   C       -1.82542         1.35997        -4.43807
   C       -6.47051       -16.00455         8.00382
   C       -5.66455       -16.71821         8.85357
   C       -5.64957       -18.16035         9.00384
   C       -4.59584       -18.48804         9.96551
   C       -3.99588       -17.29500        10.40579
   C       -4.64287       -16.14998         9.74124
   C       -4.14025       -19.70170        10.45556
   C       -3.09654       -19.69746        11.37258
   C       -2.51127       -18.51515        11.80121
   C       -2.95972       -17.29357        11.31836
   O       -4.37625       -14.97268         9.90686
   C       -6.45282       -19.07420         8.37229
   C       -6.37444       -20.46937         8.56882
   C       -7.47119       -18.77763         7.44241
   N       -8.31735       -18.62765         6.67968
   N       -6.36145       -21.61302         8.66865
   C       -0.72188         0.49962         1.09724
   S       -2.19251        -0.40113         0.73603
   C       -2.18080        -1.07114         2.32146
   C       -1.09498        -0.60679         3.08898
   C       -0.28700         0.28001         2.40721
   C       -2.94037        -2.01238         3.01872
   C       -2.42916        -2.27665         4.30220
   S       -1.02355        -1.32407         4.67965
   S       -4.31600        -2.99882         2.63043
   C       -4.15892        -3.78495         4.16291
   C       -3.11948        -3.30213         4.94173
   C       -4.76648        -4.91969         4.78552
   C       -4.06511        -5.15146         5.99292
   C       -3.04307        -4.05574         6.24307
   C       -5.78580        -5.76468         4.35461
   C       -6.03180        -6.88541         5.11216
   C       -5.25068        -7.17577         6.25631
   C       -4.28642        -6.29036         6.73086
   C       -7.03326        -7.99587         4.84507
   C       -6.58321        -9.02317         5.84959
   C       -5.60763        -8.49420         6.67945
   C       -6.85968       -10.35144         6.15990
   C       -6.05920       -10.82845         7.21357
   S       -5.00424        -9.60802         7.85709
   S       -7.88592       -11.58032         5.48008
   C       -7.19963       -12.74846         6.58189
   C       -6.24159       -12.19203         7.45156
   C       -7.36050       -14.10875         6.74845
   C       -6.51649       -14.62935         7.73327
   S       -5.53175       -13.37445         8.48164
   C       -1.68866        -4.66181         6.54061
   C       -3.47322        -3.07941         7.32844
   C       -8.45648        -7.61638         5.22829
   C       -6.94469        -8.44429         3.40237
   C       -4.75342        -3.08371         7.86144
   C       -5.12063        -2.13930         8.80364
   C       -4.22759        -1.16489         9.22650
   C       -2.94759        -1.16394         8.68562
   C       -2.57427        -2.10548         7.74707
   C       -0.79433        -4.95533         5.52142
   C        0.42723        -5.53676         5.80708
   C        0.77931        -5.85398         7.11171
   C       -0.12726        -5.57451         8.12629
   C       -1.34633        -4.98782         7.84703
   C       -8.74807        -6.46187         5.93893
   C      -10.05002        -6.18457         6.31661
   C      -11.08617        -7.05395         6.00635
   C      -10.78639        -8.21121         5.29786
   C       -9.48962        -8.49205         4.91558
   C       -6.06922        -9.44825         3.01482
   C       -5.97965        -9.82587         1.68764
   C       -6.74728        -9.20146         0.71430
   C       -7.60848        -8.18412         1.10517
   C       -7.70669        -7.80762         2.43059
   C       -4.61872        -0.16579        10.27675
   C       -4.29320        -0.70172        11.67241
   C        2.12591        -6.43762         7.42734
   C        3.12962        -5.32402         7.73343
   C      -12.50263        -6.73013         6.38447
   C      -13.18767        -5.94149         5.26650
   C       -6.68905        -9.64664        -0.71817
   C       -7.75392       -10.71200        -0.98710
   H        0.87792         1.75471         0.67237
   H        1.42271         3.50508        -4.56294
   H        0.09771         3.12830        -6.58553
   H       -1.95222         1.78132        -6.53363
   H       -2.72299         0.76267        -4.39125
   H       -7.17601       -16.57226         7.40916
   H       -4.57307       -20.63716        10.14159
   H       -2.73511       -20.63933        11.75729
   H       -1.70127       -18.54708        12.51421
   H       -2.51982       -16.36075        11.63605
   H        0.59451         0.74404         2.81139
   H       -6.33077        -5.55965         3.44615
   H       -3.71815        -6.51235         7.62088
   H       -8.03672       -14.72181         6.18045
   H       -5.47018        -3.82662         7.54361
   H       -6.12151        -2.15824         9.21113
   H       -2.23632        -0.41305         8.99820
   H       -1.57507        -2.08959         7.33604
   H       -1.05056        -4.72976         4.49632
   H        1.11548        -5.75048         5.00177
   H        0.12406        -5.82005         9.14834
   H       -2.03479        -4.77075         8.65123
   H       -7.95878        -5.77213         6.19961
   H      -10.26074        -5.27880         6.86739
   H      -11.57688        -8.90399         5.04761
   H       -9.27412        -9.39679         4.36551
   H       -5.45164        -9.94075         3.75197
   H       -5.29903       -10.61617         1.40467
   H       -8.20969        -7.67968         0.36213
   H       -8.38896        -7.01968         2.71603
   H       -4.07936         0.76975        10.11613
   H       -5.68890         0.04066        10.21134
   H       -3.22777        -0.90171        11.76155
   H       -4.57595         0.02185        12.43336
   H       -4.83178        -1.62864        11.85679
   H        2.04881        -7.10000         8.29195
   H        2.48497        -7.02306         6.57867
   H        2.79370        -4.73556         8.58433
   H        4.10573        -5.74395         7.96461
   H        3.23018        -4.66013         6.87772
   H      -13.05721        -7.65305         6.56512
   H      -12.51511        -6.13826         7.30190
   H      -13.19725        -6.52102         4.34609
   H      -14.21361        -5.70662         5.54008
   H      -12.65604        -5.01112         5.07934
   H       -6.85901        -8.79354        -1.37820
   H       -5.70268       -10.05909        -0.93911
   H       -8.74614       -10.31408        -0.78631
   H       -7.71325       -11.03822        -2.02367
   H       -7.59579       -11.57498        -0.34417
*
