# ORCA input file
# SCF done       -228.509370390618          0.000358822666
! wb97x-d3 def2-SVP def2/J RIJCOSX Grid4 TightSCF
%maxcore 5000
%tddft
    Mode sTDA
    Ethresh 5.0
    maxcore 5000
end

%pal
  nprocs 6
  end
* xyz -1 2
   C        6.00165         0.97105        -3.68326
   O        5.96750        -0.16309        -4.11888
   C        7.23543         1.77198        -3.51436
   C        8.53257         1.40434        -3.81087
   C        9.53367         2.33049        -3.56841
   C        9.22590         3.58515        -3.04347
   C        7.92189         3.95222        -2.74532
   C        6.91452         3.03038        -2.98482
   C        5.46541         3.09661        -2.78543
   C        4.80721         4.18460        -2.26978
   C        3.41969         4.30923        -2.04448
   N        2.31192         4.51539        -1.81875
   C        5.44632         5.37868        -1.87224
   N        5.89377         6.37917        -1.53050
   C        4.90026         1.83325        -3.22151
   F       10.21193         4.46249        -2.81947
   C        3.54991         1.55940        -3.18627
   F       10.80769         2.01841        -3.84082
   C      -11.10596       -12.00019       -10.28084
   O       -9.99469       -11.53287       -10.10479
   C      -11.48439       -12.96567       -11.33551
   C      -10.68954       -13.51690       -12.31976
   C      -11.28469       -14.40230       -13.20436
   C      -12.63856       -14.71553       -13.09185
   C      -13.43622       -14.16157       -12.10065
   C      -12.84881       -13.27553       -11.21200
   C      -13.39929       -12.52983       -10.07697
   C      -14.70009       -12.60550        -9.64650
   C      -15.24953       -11.90993        -8.54974
   N      -15.77765       -11.38420        -7.67493
   C      -15.68699       -13.41283       -10.25016
   N      -16.53731       -14.04444       -10.69274
   C      -12.32584       -11.73714        -9.51980
   F      -13.18849       -15.57214       -13.96092
   C      -12.43900       -10.86263        -8.45995
   F      -10.55219       -14.96116       -14.17665
   C      -11.48924       -10.04668        -7.84715
   S       -9.78231        -9.91193        -8.26488
   C       -9.57549        -8.75134        -7.02891
   C      -10.75909        -8.46645        -6.31866
   C      -11.82496        -9.19739        -6.77445
   C       -8.54266        -7.94499        -6.51008
   C       -9.04831        -7.14837        -5.47667
   C      -10.50739        -7.44613        -5.23095
   S       -6.87993        -7.65019        -6.82334
   C       -6.87054        -6.40369        -5.59755
   C       -8.10209        -6.26995        -4.97156
   C       -5.66008        -5.68590        -5.33098
   C       -5.58481        -4.48301        -4.62175
   C       -4.34843        -3.86403        -4.32582
   C       -3.12179        -4.34390        -4.79343
   C       -3.18207        -5.54666        -5.53552
   C       -4.42280        -6.19335        -5.78722
   N       -2.22750        -6.28104        -6.12645
   N       -2.87289        -7.27462        -6.67315
   N       -4.16537        -7.28863        -6.51229
   C       -1.89902        -3.62948        -4.61077
   S       -1.89685        -1.99810        -3.98944
   C       -0.19274        -1.92862        -4.19592
   C        0.34263        -3.10991        -4.72395
   C       -0.62840        -4.07264        -4.95044
   C        0.85421        -1.02110        -3.94736
   C        2.07430        -1.61930        -4.31343
   C        1.84050        -3.00254        -4.87671
   S        1.05525         0.55448        -3.33044
   C        2.81024         0.43421        -3.56047
   C        3.16355        -0.80656        -4.09998
   O       -4.35870        -2.69461        -3.59812
   C        2.27290        -2.99213        -6.35992
   C        1.94777        -4.26263        -7.13374
   C        2.58222        -4.08338        -4.07483
   C        2.26500        -4.03075        -2.58483
   C      -10.73721        -8.13541        -3.86744
   C      -10.33703        -7.30944        -2.65242
   C      -11.38409        -6.19483        -5.39276
   C      -11.25342        -5.56113        -6.77289
   C       -2.19262        -8.32417        -7.37633
   C       -1.90342        -9.49232        -6.43844
   O       -6.72333        -3.84438        -4.18580
   C       -7.40933        -3.10009        -5.18650
   C       -6.59539        -1.93116        -5.72506
   C       -4.24811        -2.85279        -2.18517
   C       -5.48604        -3.44348        -1.52751
   H        8.76282         0.43229        -4.21684
   H        7.74165         4.93449        -2.34153
   H        2.92750         2.35850        -2.80215
   H       -9.64310       -13.27046       -12.40267
   H      -14.47692       -14.43736       -12.05907
   H      -13.42325       -10.77089        -8.01707
   H      -12.82786        -9.15042        -6.38817
   H       -8.26781        -5.56073        -4.18224
   H       -0.46729        -5.06282        -5.33320
   H        4.18646        -1.06210        -4.30543
   H        1.78118        -2.14650        -6.84743
   H        3.34921        -2.81189        -6.38998
   H        0.87697        -4.44600        -7.14527
   H        2.28511        -4.15258        -8.16191
   H        2.44953        -5.12611        -6.70599
   H        2.30079        -5.06261        -4.46323
   H        3.65500        -3.94853        -4.22319
   H        1.19898        -4.16359        -2.41294
   H        2.79778        -4.82197        -2.06305
   H        2.56645        -3.07717        -2.15787
   H      -11.79609        -8.39281        -3.79892
   H      -10.16818        -9.06849        -3.86282
   H      -10.89963        -6.38155        -2.59992
   H      -10.54117        -7.87796        -1.74800
   H       -9.27591        -7.07760        -2.67390
   H      -12.42458        -6.47398        -5.21683
   H      -11.09399        -5.46342        -4.63787
   H      -11.56298        -6.25629        -7.54969
   H      -11.87980        -4.67477        -6.83661
   H      -10.22376        -5.26807        -6.96565
   H       -2.84032        -8.64647        -8.19376
   H       -1.26491        -7.90616        -7.77100
   H       -2.83320        -9.88499        -6.03457
   H       -1.39578       -10.28346        -6.98217
   H       -1.26950        -9.16953        -5.61605
   H       -7.70794        -3.76314        -6.01052
   H       -8.30748        -2.73867        -4.67991
   H       -6.22822        -1.32081        -4.90435
   H       -5.73985        -2.28918        -6.29436
   H       -7.21930        -1.32356        -6.37463
   H       -3.37012        -3.47118        -1.95034
   H       -4.07071        -1.83833        -1.82057
   H       -6.36419        -2.85925        -1.78552
   H       -5.35311        -3.43496        -0.44890
   H       -5.64714        -4.46813        -1.85413
*
