# ORCA input file
# SCF done       -228.703022748016          0.000443318885
! wb97x-d3 def2-SVP def2/J RIJCOSX Grid4 TightSCF
%maxcore 5000
%tddft
    Mode sTDA
    Ethresh 5.0
    maxcore 5000
end

%pal
  nprocs 6
  end
* xyz -1 2
   C       -1.09685         0.59255        -2.16768
   C       -1.47224         1.92536        -2.15712
   C       -0.44532         2.78838        -1.78831
   C        0.74502         2.14422        -1.51621
   S        0.57783         0.42907        -1.72324
   C        2.00128         2.71510        -1.09282
   C        3.17573         1.95278        -1.14900
   C        4.38982         2.45805        -0.73179
   C        4.43934         3.75352        -0.23636
   C        3.26591         4.52428        -0.17607
   C        2.05837         4.02613        -0.59644
   C        3.54721         5.86667         0.45697
   C        3.13529         7.07096        -0.35355
   C        2.73147         6.04894         1.71706
   C        5.03650         5.79218         0.68774
   C        5.53620         4.54221         0.28415
   C        6.89085         4.26867         0.40853
   C        7.72775         5.24535         0.90974
   C        7.23991         6.50251         1.29349
   C        5.86630         6.76476         1.18350
   C        8.13558         7.53094         1.76620
   C        9.47023         7.42726         2.10398
   C       10.05002         8.63294         2.48937
   C        9.17114         9.70007         2.45369
   S        7.59217         9.16876         1.94167
   C        9.37170        11.06946         2.73844
   C       10.52023        11.69131         3.10282
   S       12.10154        10.99274         3.34852
   C       12.80014        12.56794         3.72688
   N       11.85153        13.53278         3.65667
   C       10.56459        13.13811         3.32907
   S       14.37197        12.79559         4.09173
   C       12.14426        14.92516         3.93906
   C       12.11193        15.20453         5.43596
   O        9.63200        13.90331         3.23648
   C       -1.92626        -0.50712        -2.47287
   C       -1.59997        -1.82324        -2.45825
   C       -2.57408        -2.87076        -2.76908
   N       -1.98529        -4.11915        -2.64817
   C       -0.67714        -4.15758        -2.29635
   S       -0.04943        -2.52391        -2.06752
   S        0.21724        -5.50448        -2.09062
   C       -2.74790        -5.32298        -2.91874
   C       -2.51534        -5.81735        -4.34056
   O       -3.73231        -2.70160        -3.07623
   C        2.67125         5.21978         2.80845
   C        1.78732         5.53559         3.85105
   C        1.00220         6.69219         3.75619
   C        1.07269         7.52949         2.66178
   C        1.93829         7.20451         1.62663
   C        2.20227         7.84620         0.35608
   C        1.71491         9.02019        -0.20059
   C        2.17199         9.40476        -1.44390
   C        3.10703         8.64154        -2.15656
   C        3.58880         7.45022        -1.59179
   C        4.08330        10.42709        -5.49207
   C        4.65347         9.16516        -5.49774
   C        4.37268         8.42421        -4.35473
   C        3.57802         9.09236        -3.44383
   S        3.17416        10.67638        -4.02978
   C        4.20504        11.40292        -6.50341
   C        3.66826        12.64806        -6.52712
   C        3.88618        13.56738        -7.64518
   N        3.22609        14.76305        -7.41367
   C        2.53176        14.87524        -6.25505
   S        2.66235        13.39064        -5.30907
   S        1.67519        16.17704        -5.77789
   C        3.31808        15.85196        -8.36745
   C        4.40122        16.84545        -7.96703
   O        4.53603        13.34071        -8.64079
   C        0.85461         3.44337         7.01475
   C        2.07129         2.98395         6.53935
   C        2.51604         3.66033         5.40797
   C        1.66073         4.66102         4.99242
   S        0.27584         4.75948         6.03368
   C        0.14361         2.93097         8.12025
   C       -1.06551         3.32777         8.58851
   C       -1.70231         2.68617         9.73991
   N       -2.92730         3.27931         9.99791
   C       -3.30995         4.29356         9.18426
   S       -2.07802         4.60294         7.95893
   S       -4.69916         5.13793         9.30082
   C       -3.76738         2.79550        11.07683
   C       -4.81650         1.81721        10.56415
   O       -1.24710         1.77376        10.39188
   H       -2.46737         2.24618        -2.40875
   H       -0.56369         3.85562        -1.73804
   H        3.12043         0.94400        -1.53171
   H        5.28118         1.85177        -0.78381
   H        1.16520         4.62669        -0.52110
   H        7.28968         3.31216         0.10654
   H        8.78382         5.04135         0.98701
   H        5.47396         7.72659         1.48134
   H       10.01519         6.50118         2.08377
   H       11.07867         8.72791         2.78547
   H        8.51025        11.72092         2.64434
   H       13.13085        15.15329         3.52881
   H       11.37837        15.51058         3.42491
   H       12.86658        14.61237         5.94820
   H       12.31584        16.25640         5.61227
   H       11.13259        14.96435         5.84326
   H       -2.95219        -0.28132        -2.74012
   H       -2.44630        -6.08461        -2.19572
   H       -3.79836        -5.06055        -2.77257
   H       -1.46764        -6.06890        -4.48715
   H       -3.11483        -6.70524        -4.51784
   H       -2.80230        -5.05183        -5.05770
   H        3.27193         4.32420         2.84784
   H        0.32630         6.92675         4.56571
   H        0.45685         8.41410         2.60953
   H        0.99779         9.62718         0.33024
   H        1.80533        10.31963        -1.88631
   H        4.31772         6.84765        -2.11087
   H        5.25447         8.80762        -6.31481
   H        4.73296         7.42289        -4.20334
   H        4.80235        11.13406        -7.36710
   H        3.55491        15.39682        -9.33198
   H        2.34471        16.34594        -8.41321
   H        5.36679        16.34828        -7.91025
   H        4.45852        17.63752        -8.70763
   H        4.17056        17.28759        -7.00073
   H        2.60601         2.17716         7.00812
   H        3.44562         3.43720         4.91630
   H        0.60787         2.11199         8.65764
   H       -3.10053         2.30216        11.78784
   H       -4.24665         3.65780        11.54621
   H       -4.33719         0.96643        10.08546
   H       -5.41510         1.45897        11.39631
   H       -5.47238         2.30646         9.84798
*
