# ORCA input file
# SCF done       -145.257422313669          0.000427119064
! wb97x-d3 def2-SVP def2/J RIJCOSX Grid4 TightSCF
%maxcore 5000
%tddft
    Mode sTDA
    Ethresh 5.0
    maxcore 5000
end

%pal
  nprocs 6
  end
* xyz -1 2
   C       -0.56154        -0.90240         0.48745
   C        5.70326         3.59730         0.16289
   C        5.85962         5.00851         0.26803
   C        7.16281         5.60784         0.15865
   C        8.33021         4.82462        -0.06226
   C        8.12789         3.45026        -0.15184
   C        6.87299         2.86892        -0.04199
   N        4.91257         5.92337         0.46885
   S        5.59200         7.38186         0.51550
   N        7.11511         6.93108         0.28338
   C       -1.48870        -1.98561         0.51164
   C       -2.89169        -1.77414         0.63006
   C       -3.79677        -2.89160         0.66418
   C       -3.33101        -4.23410         0.58892
   C       -1.95340        -4.38998         0.46397
   C       -1.07825        -3.31404         0.42535
   N       -3.53925        -0.61343         0.71684
   S       -5.11944        -0.90033         0.82843
   N       -5.06409        -2.50355         0.77429
   C       -0.82919         0.45345         0.60627
   C        0.31877         1.22804         0.54960
   C        1.47888         0.46678         0.38225
   S        1.15897        -1.21317         0.29877
   C        0.65178         2.69799         0.62238
   C        2.15233         2.65073         0.46944
   C        2.59289         1.33151         0.33123
   C        3.18845         3.57059         0.42946
   C        4.42656         2.96904         0.25797
   S        4.29138         1.21923         0.14763
   C        0.23953         3.30672         1.97563
   C       -0.01063         3.48660        -0.52248
   C        0.83703         2.57195         3.16929
   C        0.34530         2.94916        -1.90312
   C       -4.29009        -5.28609         0.65182
   C       -4.11334        -6.62913         0.64202
   C       -5.26086        -7.53899         0.73504
   N       -4.83414        -8.85798         0.72512
   C       -3.50188        -9.08011         0.62734
   S       -2.63078        -7.55035         0.54209
   S       -2.77306       -10.53838         0.60321
   C       -5.79487        -9.94262         0.78707
   C       -6.11954       -10.47203        -0.60386
   O       -6.42329        -7.21625         0.82171
   C        9.58272         5.49464        -0.17593
   C       10.81782         4.99717        -0.42567
   C       11.98192         5.88568        -0.51920
   N       13.12490         5.15644        -0.80870
   C       12.99044         3.81541        -0.94025
   S       11.31030         3.34183        -0.69781
   S       14.18626         2.76174        -1.28413
   C       14.40887         5.81893        -0.93446
   C       15.19946         5.74461         0.36542
   O       11.97670         7.08710        -0.37989
   H        8.97460         2.80207        -0.31193
   H        6.79671         1.79426        -0.12340
   H       -1.53947        -5.38320         0.39378
   H       -0.02120        -3.51569         0.32872
   H       -1.83118         0.82066         0.72826
   H        3.08804         4.63652         0.51601
   H        0.56027         4.35007         1.99403
   H       -0.84977         3.28507         2.04469
   H       -1.09295         3.44598        -0.38565
   H        0.30232         4.52976        -0.44718
   H        1.92374         2.58737         3.12817
   H        0.52282         3.04931         4.09417
   H        0.50743         1.53570         3.18989
   H        0.02764         1.91429        -2.00827
   H       -0.15052         3.53894        -2.67016
   H        1.41844         2.99950        -2.07267
   H       -5.32275        -4.96335         0.72953
   H       -5.37131       -10.73543         1.40832
   H       -6.69118        -9.53296         1.25875
   H       -5.22414       -10.86896        -1.07641
   H       -6.85420       -11.26789        -0.52617
   H       -6.52775        -9.67734        -1.22399
   H        9.54179         6.57160        -0.05322
   H       14.96074         5.33654        -1.74481
   H       14.19435         6.85872        -1.19209
   H       15.40075         4.70855         0.62724
   H       16.14583         6.26312         0.24399
   H       14.64293         6.21490         1.17272
*
