# ORCA input file
# SCF done       -182.980942257830          0.000850193149
! wb97x-d3 def2-SVP def2/J RIJCOSX Grid4 TightSCF
%maxcore 5000
%tddft
    Mode sTDA
    Ethresh 5.0
    maxcore 5000
end

%pal
  nprocs 6
  end
* xyz -1 2
   C       -4.02143        17.78639       -24.17966
   O       -3.65266        16.82194       -23.53163
   C       -4.39608        17.77966       -25.60745
   C       -4.40186        16.72100       -26.49133
   C       -4.78853        16.96284       -27.80380
  Cl       -4.80700        15.67320       -28.93774
   C       -5.15990        18.25106       -28.20219
  Cl       -5.63350        18.53773       -29.82801
   C       -5.15324        19.31488       -27.30528
   C       -4.76780        19.07793       -25.99660
   C       -4.65170        19.96718       -24.84027
   C       -4.94562        21.30714       -24.84664
   C       -4.84717        22.18077       -23.74389
   N       -4.79592        22.95677       -22.89771
   C       -5.39929        22.01121       -25.98231
   N       -5.76938        22.64648       -26.86386
   C       -4.17955        19.16859       -23.72718
   C       -3.90592        19.64856       -22.46651
   C       -3.42822        19.00459       -21.32376
   S       -3.04552        17.28425       -21.21907
   C       -2.55435        17.48135       -19.58045
   C       -2.68448        18.81359       -19.14624
   C       -3.17631        19.67830       -20.11293
   C       -3.44112        21.12373       -19.84736
   C       -4.91252        21.34911       -19.48743
   S       -2.15679        19.06716       -17.49194
   C       -1.75329        17.38853       -17.39959
   C       -2.03417        16.67190       -18.56778
   N       -1.68515        15.35438       -18.41409
   C       -1.44593        14.60782       -19.63284
   C       -1.15315        15.20710       -17.13852
   C       -1.16855        16.48731       -16.50242
   C       -0.57822        16.71481       -15.23997
   N       -0.48346        17.84867       -14.56273
   S        0.36575        17.56661       -13.21359
   N        0.64011        15.98920       -13.44108
   C        0.07657        15.62556       -14.58191
   C       -0.01489        14.33832       -15.15478
   C       -0.68397        14.09305       -16.38746
   N       -0.75863        12.72365       -16.56802
   C       -1.51008        11.99712       -17.56082
   C       -0.61238        11.44468       -18.67108
   C       -0.13377        12.10188       -15.50402
   C        0.36046        13.09492       -14.63520
   S        1.17312        12.48753       -13.26508
   C        0.83723        10.84750       -13.82732
   C        0.10984        10.80724       -15.04008
   C        1.97238         9.50894       -12.00133
   C        2.33637         8.21675       -11.45550
   C        2.03308         6.97578       -11.95851
   C        2.42412         5.76058       -11.35754
   N        2.70161         4.73331       -10.92649
   C        1.29880         6.71109       -13.13230
   N        0.71612         6.40068       -14.07354
   C        3.11498         8.45744       -10.24055
   C        3.71148         7.58835        -9.34204
   C        4.41014         8.12049        -8.26327
  Cl        5.15479         7.04900        -7.14585
   C        4.51631         9.50246        -8.07663
  Cl        5.38890        10.12405        -6.73470
   C        3.91799        10.37730        -8.97551
   C        3.22689         9.84391       -10.04285
   C        2.51585        10.55395       -11.12734
   O        2.41858        11.75941       -11.24843
   C       -0.02590        14.84542       -20.14292
   C       -0.38997         9.52118       -15.62653
   C       -1.67901         9.07286       -14.92919
   C        1.24855         9.69066       -13.15664
   H       -4.11230        15.73308       -26.16995
   H       -5.44557        20.29243       -27.65141
   H       -4.07357        20.70675       -22.32063
   H       -2.81727        21.43588       -19.00750
   H       -3.18270        21.73686       -20.71187
   H       -5.17814        20.77419       -18.60340
   H       -5.08318        22.40226       -19.28449
   H       -5.56066        21.04768       -20.30683
   H       -1.62681        13.54840       -19.49646
   H       -2.16389        14.97602       -20.37019
   H       -2.02083        11.17088       -17.05903
   H       -2.28744        12.65445       -17.95419
   H        0.08840        10.71773       -18.26901
   H       -1.21754        10.95691       -19.43113
   H       -0.02500        12.23070       -19.13623
   H        3.65418         6.51800        -9.45109
   H        3.99088        11.44552        -8.84595
   H        0.12776        15.90211       -20.34887
   H        0.70822        14.53081       -19.40309
   H        0.13443        14.28865       -21.06177
   H       -0.58495         9.63361       -16.68980
   H        0.35814         8.73385       -15.52468
   H       -2.45937         9.82445       -15.03487
   H       -2.02822         8.14041       -15.36402
   H       -1.50540         8.91241       -13.86848
   H        0.94767         8.77520       -13.64505
*
