# ORCA input file
# SCF done       -245.715434607557          0.000711742569
! wb97x-d3 def2-SVP def2/J RIJCOSX Grid4 TightSCF
%maxcore 5000
%tddft
    Mode sTDA
    Ethresh 5.0
    maxcore 5000
end

%pal
  nprocs 6
  end
* xyz -1 2
   C       13.16263        -6.50277        -1.17162
   C       14.54329        -6.61563        -1.25632
   C       15.36025        -5.50205        -1.44533
   C       14.81058        -4.23475        -1.55611
   C       13.43772        -4.12461        -1.47136
   C       12.60513        -5.23907        -1.28046
   C       12.60790        -2.90316        -1.55330
   C       11.22445        -3.34402        -1.38857
   C       11.21366        -4.78118        -1.23036
   C       10.11064        -2.52867        -1.37253
   C        9.99647        -1.14502        -1.48434
   C        8.75128        -0.48649        -1.40676
   C        8.85992         0.87529        -1.51877
   C       10.19809         1.28490        -1.68336
   S       11.31789        -0.00044        -1.70747
   C        7.93421         2.07385        -1.47574
   C        8.93070         3.19280        -1.68555
   C       10.23112         2.68616        -1.78370
   C        8.90256         4.57263        -1.82163
   C       10.16990         5.11710        -2.00663
   S       11.41985         3.89944        -2.03730
   C       10.53067         6.49579        -2.12402
   C        7.28747         2.12377        -0.07414
   C        6.87759         2.02567        -2.59031
   C        7.49200         1.84516        -3.97356
   C        6.46903         3.37481         0.21495
   O       13.02640        -1.77178        -1.72872
   F       15.10047        -7.82833        -1.15216
   F       16.68914        -5.65685        -1.52021
   C       10.12653        -5.60187        -1.06145
   C       10.20876        -7.00247        -0.91542
   C        8.77856        -5.19136        -1.00977
   N        7.65662        -4.94842        -0.95692
   N       10.20239        -8.14340        -0.78792
   C       11.86713        10.58572        -2.23045
   S       13.56301        10.90711        -2.47960
   C       13.26100        12.59189        -2.30145
   C       11.91182        12.89156        -2.08617
   C       11.12961        11.74809        -2.03485
   C       14.00324        13.78475        -2.26494
   C       13.13493        14.86679        -2.02288
   C       11.70572        14.38045        -1.90603
   S       15.63105        14.26054        -2.41986
   C       15.17086        15.95188        -2.15712
   C       13.78878        16.07737        -1.98081
   C       16.21828        16.87605        -2.16737
   C       16.25682        18.23253        -1.92456
   C       17.47408        19.01675        -2.00315
   C       17.16174        20.37287        -1.54861
   C       15.79409        20.43717        -1.24348
   C       15.16639        19.11695        -1.48096
   C       17.95542        21.49836        -1.39142
   C       17.35402        22.66080        -0.93172
   C       15.99298        22.71445        -0.63366
   C       15.19351        21.59362        -0.78808
   F       15.45408        23.85899        -0.19263
   F       18.10509        23.75720        -0.76996
   O       13.98801        18.86925        -1.31442
   C       18.70864        18.61457        -2.44764
   C       19.84310        19.45274        -2.49134
   C       19.05346        17.33910        -2.94294
   C       10.88347        14.99998        -3.05356
   C       11.11631        14.63727        -0.50496
   C       10.87789        16.10197        -0.16306
   C        9.43561        14.53442        -3.12697
   N       20.80859        20.07153        -2.54556
   N       19.43293        16.34410        -3.37503
   C        9.64465         7.55876        -1.97448
   C       10.06384         8.88019        -2.02308
   C       11.39607         9.23620        -2.21963
   C       12.32436         8.17410        -2.40886
   C       11.89382         6.82925        -2.36159
   N       13.61092         8.44833        -2.66009
   C       14.47750         7.47678        -2.83774
   C       14.05647         6.11389        -2.70226
   N       12.78790         5.84607        -2.49969
   C       14.95345         4.95739        -2.73220
   C       15.84036         7.85311        -3.21484
   C       16.44660         8.95738        -2.61971
   C       17.72199         9.33528        -2.98698
   C       18.41905         8.63527        -3.96517
   C       17.80359         7.54295        -4.56713
   C       16.53215         7.15106        -4.20093
   C       16.18107         4.96258        -2.07388
   C       16.95546         3.81898        -2.04595
   C       16.53646         2.65164        -2.67391
   C       15.31396         2.65568        -3.33737
   C       14.52871         3.78822        -3.36234
   C       17.34788         1.39216        -2.59925
   C       16.76229         0.43944        -1.55364
   C       19.82169         9.02044        -4.33138
   C       20.82552         8.25359        -3.46711
   H       12.57844        -7.39596        -1.02418
   H       15.43714        -3.36929        -1.70130
   H        9.15668        -3.02409        -1.23923
   H        7.83549        -1.03520        -1.27376
   H        8.01127         5.17329        -1.80838
   H        6.65118         1.24252         0.03041
   H        8.08623         2.04619         0.66779
   H        6.19295         1.20044        -2.38505
   H        6.30642         2.95459        -2.57427
   H        8.04102         0.90844        -4.03414
   H        6.71055         1.83383        -4.72948
   H        8.17701         2.65944        -4.19918
   H        5.64854         3.48395        -0.48897
   H        6.04744         3.30642         1.21519
   H        7.09352         4.26278         0.17175
   H       10.07158        11.73812        -1.84750
   H       13.33282        17.03805        -1.83168
   H       17.17534        16.42058        -2.39164
   H       19.01124        21.51221        -1.60485
   H       14.14048        21.62808        -0.55862
   H       10.91545        16.08469        -2.94548
   H       11.38433        14.74931        -3.99241
   H       10.17687        14.08741        -0.42533
   H       11.80706        14.20817         0.22577
   H       10.15343        16.55356        -0.83490
   H       10.48841        16.17508         0.85011
   H       11.80094        16.67159        -0.21113
   H        8.89470        14.77477        -2.21587
   H        8.93780        15.03213        -3.95619
   H        9.38213        13.46246        -3.29633
   H        8.59950         7.35757        -1.79713
   H        9.32495         9.65504        -1.89026
   H       15.91074         9.50439        -1.85978
   H       18.18244        10.19046        -2.51398
   H       18.32653         6.99597        -5.33837
   H       16.06361         6.31344        -4.69631
   H       16.51478         5.85250        -1.56063
   H       17.89962         3.83150        -1.52045
   H       14.97292         1.75759        -3.83095
   H       13.58076         3.78527        -3.87740
   H       17.34842         0.89685        -3.57274
   H       18.38035         1.62931        -2.33559
   H       15.74177         0.16551        -1.81113
   H       17.36280        -0.46519        -1.49221
   H       16.75136         0.91451        -0.57517
   H       20.00614         8.79283        -5.38299
   H       19.96300        10.09217        -4.18169
   H       20.70845         7.18164        -3.61077
   H       21.84273         8.53107        -3.73208
   H       20.66753         8.47761        -2.41453
*
