# ORCA input file
# SCF done       -191.106734523080          0.000864817790
! wb97x-d3 def2-SVP def2/J RIJCOSX Grid4 TightSCF
%maxcore 5000
%tddft
    Mode sTDA
    Ethresh 5.0
    maxcore 5000
end

%pal
  nprocs 6
  end
* xyz -1 2
   C        3.84701        -4.16363         0.51208
   O        3.48236        -4.52874        -0.59152
   C        4.77738        -4.88543         1.40359
   C        5.42159        -6.08600         1.18052
   C        6.25318        -6.56388         2.18041
   F        6.89838        -7.72300         2.00758
   C        6.42352        -5.84743         3.36551
   F        7.23151        -6.33202         4.31360
   C        5.77534        -4.64123         3.58859
   C        4.94213        -4.15580         2.59308
   C        4.13045        -2.93970         2.51650
   C        4.03808        -1.99263         3.50280
   C        3.26036        -0.81631         3.44833
   N        2.65657         0.16068         3.48323
   C        4.72015        -2.06629         4.73685
   N        5.24394        -2.06347         5.75761
   C        3.46307        -2.94695         1.22903
   C        2.61406        -1.96803         0.77044
   C        1.90911        -1.85063        -0.43074
   S        1.92852        -3.03504        -1.73771
   C        0.84434        -2.05923        -2.65500
   C        0.49965        -0.87553        -1.97610
   C        1.08456        -0.74835        -0.72386
   C        0.88713         0.45102         0.14316
   C        2.02811         1.45476        -0.04821
   S       -0.59173         0.16217        -2.87227
   C       -0.58058        -0.99525        -4.15533
   C        0.21052        -2.12508        -3.89911
   N        0.18107        -2.97000        -4.97499
   C        1.16866        -4.02207        -5.08302
   C       -0.63570        -2.40385        -5.93640
   C       -1.09265        -1.13899        -5.44896
   C       -1.82148        -0.24742        -6.26376
   N       -2.27422         0.96151        -5.96582
   S       -2.95648         1.59111        -7.28972
   N       -2.70382         0.35125        -8.28995
   C       -2.07783        -0.60884        -7.62835
   C       -1.71409        -1.90157        -8.06627
   C       -1.07166        -2.82816        -7.21434
   N       -0.98240        -4.04057        -7.88519
   C       -0.92224        -5.37189        -7.31968
   C       -2.19547        -5.68738        -6.53709
   C       -1.53509        -3.89212        -9.13812
   C       -1.98334        -2.53355        -9.30805
   S       -2.65765        -1.89366       -10.68125
   C       -1.79279        -5.68998       -10.97308
   C       -1.64518        -4.87446       -10.05820
   S       -2.80752        -7.27209       -14.43593
   C       -2.56018        -6.22398       -13.16901
   C       -1.91480        -6.59856       -11.96641
   C       -1.34777        -7.97455       -11.80429
   C        0.03782        -8.04433       -12.45294
   C       -3.09801        -4.89099       -13.38986
   C       -2.37082        -3.75482       -13.43691
   C       -2.85044        -2.40144       -13.69951
   C       -4.15056        -2.00416       -13.82466
   C       -4.55341        -0.67499       -14.08303
   N       -4.94400         0.37898       -14.31151
   C       -5.27338        -2.85002       -13.68948
   N       -6.23167        -3.47199       -13.58081
   C       -1.68042        -1.52986       -13.75172
   C       -1.57443        -0.16300       -13.96382
   C       -0.31187         0.40673       -13.92343
   F       -0.18559         1.72226       -14.12544
   C        0.83062        -0.35772       -13.67879
   F        2.03058         0.23593       -13.64379
   C        0.73451        -1.72253       -13.46908
   C       -0.52435        -2.29153       -13.50770
   C       -0.88840        -3.70730       -13.30644
   O       -0.13366        -4.63337       -13.11561
   C        0.79704        -5.25405        -4.25983
   H        5.28673        -6.63630         0.26312
   H        5.94207        -4.12857         4.52146
   H        2.45173        -1.13526         1.44060
   H       -0.05437         0.92526        -0.14044
   H        0.82478         0.17047         1.19551
   H        2.07701         1.77958        -1.08480
   H        1.86138         2.32283         0.58260
   H        2.98313         1.01091         0.22285
   H        1.31912        -4.25562        -6.13795
   H        2.11443        -3.62408        -4.69903
   H       -0.82357        -6.06265        -8.16133
   H       -0.04945        -5.48959        -6.68563
   H       -3.06502        -5.61588        -7.18688
   H       -2.14513        -6.69649        -6.13731
   H       -2.32444        -4.98790        -5.71321
   H       -1.27308        -8.22222       -10.74384
   H       -2.00838        -8.69198       -12.29545
   H        0.69561        -7.29117       -12.02648
   H        0.47163        -9.02865       -12.29619
   H       -0.03977        -7.86169       -13.52099
   H       -4.15203        -4.86501       -13.63574
   H       -2.42610         0.46977       -14.15106
   H        1.61444        -2.31672       -13.28026
   H        0.84595        -5.02072        -3.19994
   H       -0.20726        -5.60101        -4.48646
   H        1.50307        -6.05464        -4.46125
*
