101
 SCF done       -236.423298062432          0.001431086351
C           3.14041479531760    4.72196088361303    1.42691771239071
C           3.94486788348212    3.61019245429580    1.55087518749426
S           4.04230028343602    6.17634013405449    1.73355399384140
C           5.53515235456812    5.25581237017768    1.85490612298470
C           5.27870716599270    3.88651135123619    1.79552450711134
C           6.82830707498594    5.65091589661442    1.53386363193273
C           7.90278144331061    5.49394656799903    0.96141965493046
S           6.39528134808035    2.54242090991749    1.62241494284950
C           8.58000504611320    4.63169371258147    0.06186488545388
C           9.89563646839295    4.38640074689900   -0.30353087789272
C          10.17138713804020    3.18522361302724   -0.98754852312390
C          11.59216094136070    3.07547006141136   -1.24815225261879
C          12.23037456721780    4.28959702981959   -0.68336291991755
C          11.15311469280788    5.12650870071556   -0.07216703564420
C          12.36689485287568    2.17519317105688   -1.84137229414582
C          13.70211113955613    2.32506274607315   -1.95393941034319
C          14.32934191457845    3.52072480725174   -1.39970400020693
C          13.54161772710492    4.43209451296256   -0.79623510822555
F          15.64192226069404    3.58224747194476   -1.55145909350720
F          14.54091573829956    1.48196325901678   -2.52834050611968
O          11.31138362055467    6.17778163764737    0.48583469501370
C           9.18458907810190    2.23738727290318   -1.27085064780900
C           9.50935812997892    0.96291754993671   -1.77978524672770
C           7.86872779197184    2.61486753717452   -0.91363975116930
N           7.63492173525069    3.77330178024272   -0.34549543471499
N           9.79413621427542   -0.08957221427997   -2.13160597891230
C          -5.58905353345391    1.24046460322621   -0.25916117604712
C          -5.34769664867534   -0.14134262580815   -0.40607625147130
S          -7.28224106210839    1.57367977395657   -0.21994957878762
C          -7.64907361363280   -0.18057018662827   -0.18408504884666
C          -6.44351701946312   -0.95141064189109   -0.22416099219647
C          -8.88294215133996   -0.66484841550072   -0.10344673406789
C         -10.00932804084195   -1.22478491206134   -0.01608201392105
S          -6.23885709014772   -2.61719258531141    0.20737439996787
C         -11.12848677288427   -1.83097543111272   -0.00894353424585
C         -12.24960849541664   -2.50941408879206    0.13398583853671
C         -13.10178105523217   -3.03532562389277   -0.91153798444693
C         -14.19896093141418   -3.75414516881704   -0.31493719967458
C         -14.05265369380949   -3.68223690338603    1.15217842052931
C         -12.83604603675256   -2.89459487394497    1.45859431436006
O         -12.41606478884688   -2.62785367353272    2.54852669386627
C         -12.90915732639871   -2.89994172752851   -2.25707561410513
C         -13.80338586490776   -3.46208268461499   -3.19489763084178
N         -14.52047984647463   -3.91276562097312   -3.96662695903722
C         -11.80724634326446   -2.19388925877584   -2.78344102857683
N         -10.91467097995097   -1.62331919954746   -3.22117548368357
C         -15.23572023354189   -4.43040567272095   -0.81591396026849
C         -16.14261132268082   -5.04369063970003   -0.04093724441767
C         -15.99456252952299   -4.97122049841651    1.42382508800044
C         -14.95219120752091   -4.28928953427259    1.92001626055072
F         -16.93254254296976   -5.60575515085046    2.09832521837648
F         -17.19144539771369   -5.73236133999895   -0.44050257793789
C          -3.91034554817471   -0.46426293642265   -0.28375052090618
C          -3.36418408384700    0.90629970110418   -0.08945624004552
C          -4.35508914871118    1.93242054870272   -0.06831719909513
C          -3.73136923969880   -1.42996922247226    0.85646799898133
C          -2.89791795913562   -0.98223527753735   -1.30948909713360
C          -4.67403151346653   -2.52591946540566    1.05093110040468
C          -4.32692625922250   -3.48595773560612    1.92455230121520
C          -3.20371242403225   -3.50485623684918    2.65415493694461
C          -2.25085371006916   -2.38073279417453    2.46056712651963
C          -2.62330116245397   -1.41758315360433    1.60403139013053
C          -2.81923006787598   -2.12804492549817   -2.01632366027844
C          -1.64427333309144   -2.35412498151050   -2.52604670777505
C          -0.46744842574541   -1.67123180341851   -2.57779086148012
C          -0.57069387485338   -0.52853012008102   -1.84060185642090
C          -1.68190523568175   -0.11807294901811   -1.21510227596030
C          -2.78834743022543   -4.45356292178505    3.60590192251155
C           0.65816185774993   -2.11414622951945   -3.33840286969164
C          -2.06549963105784    1.07963977053210   -0.49912512834702
C          -1.54451200730028    2.36938955571346   -0.32284456493368
C          -2.48967054911634    3.42710641481779    0.02637434130716
C          -3.81825613506414    3.18730932192458    0.11237774191803
C          -0.25872307399447    2.84632754983273   -0.11454996580152
C          -0.42425641960453    4.28055698321929    0.33118976773320
N          -1.74986075420784    4.55483104860554    0.32991445180579
C          -2.29291454745176    5.75505137814314    0.62223095338573
C          -2.75810512144773    6.70648099385085    1.23011076425818
C           0.95851288860931    2.27340857282024    0.03506512662186
C           2.00784855414016    2.85508738516961    0.53273472306386
C           1.85509944483110    4.38184483990830    0.92723192853373
C           0.67191170694485    4.93277955695182    0.76228789067894
C           3.35203375555821    2.35465424795906    1.00917614815395
C           3.00937265420758    1.28381545875846    1.99198405270170
C           2.19688760577170    1.30887254889065    3.14924086476217
C           1.77905895271878    0.05581173248579    3.34351680117570
C           1.36790255315616   -1.21109218238851    3.01532228166448
C           2.35909594439170   -1.27235826089245    1.99779496277510
C           2.91823346396237   -0.07653421511288    1.88589702070157
C           4.30247326632038    1.84430646673250   -0.05408879254526
C           5.70196985231725    2.02928031505277    0.04662827480010
C           6.60071696286307    1.86796240702017   -1.03349178392135
C           6.17995144603749    1.35401341649844   -2.29323917251166
C           4.84146780417001    1.08347383608477   -2.21468542660263
C           4.02040489924694    1.29686799915688   -1.27355438709028
C          -2.38724735547973   -5.38096237208827    4.27203363690952
C           1.70392382635391   -2.45064115282456   -3.81853630869684
C           0.16865650473352   -1.88899894602479    3.16049438606219
C          -0.96410928311963   -2.30321621779187    3.00384091228568
C           7.01925704756012    1.29544609061232   -3.42148001538831
C           7.71705643875184    1.37582407955388   -4.40367844181750
