66
 SCF done       -156.557019290434          0.000431416445
C          -0.60543174253027    1.18883839595299   -0.78347629061787
C          -1.42996145668481    0.04515744230724   -0.66952687910283
C          -0.85302538038627   -1.25031798635274   -0.57350319150577
C           0.55140295017943   -1.34038962874067   -0.59580488799160
C           1.37621704068636   -0.19407077472492   -0.67684945275857
C           0.79927104654867    1.10122389258355   -0.77501130109462
O           1.60811442805608    2.13958130613769   -0.80638063161468
C           1.18956085275507    3.36621081100325   -1.01917085156811
O          -1.66064529094243   -2.27898585120760   -0.42206828386751
C          -1.24409622264929   -3.52442595440411   -0.44288829301333
S           1.42504231308598   -2.84134965937790   -0.44713099067467
C           2.90313970983245   -1.96112828237106   -0.43597700962124
C           2.73483012275567   -0.57565993057757   -0.57816957175198
S          -1.47817302664564    2.69609014767163   -0.85204669237052
C          -2.95442295986830    1.83063798161933   -0.67522679414876
C          -2.78701234958663    0.43953879553038   -0.60646868989737
C          -4.32377060374786    2.15608294017574   -0.52302288638463
C          -4.97205291085850    0.84777174232203   -0.34329611572427
N          -4.00064237310267   -0.15486963415768   -0.41520416869699
S          -5.04890558540035    3.63412063451145   -0.51149573629323
C          -7.46847961719472    0.50417133979922    0.23317717922901
C          -6.25465997987800    0.62118916030626   -0.08777240146018
C           4.27575910901522   -2.26137364955899   -0.26272328211940
C           4.92498344747025   -0.94169366435002   -0.29583520803683
N           3.95065731974240    0.03950980719930   -0.50086736365030
S           5.00352416020151   -3.72134731059443   -0.04062301503444
C           7.43187329730603   -0.51996461787326    0.17278286235502
C           6.21164125999862   -0.67941352816370   -0.10242744270291
C          -8.69529933955236    0.35321079425550    0.53593991194327
C          -9.89366583223851    0.20475256413717    1.05994313435366
C           8.66484199458517   -0.32244598159220    0.41807111471698
C           9.87694218496919   -0.09593076671969    0.87882072574058
C         -10.13965225545279    0.17405244436382    2.54958842511848
C         -11.59460896050424   -0.01556780002727    2.69552181020438
C         -12.20407047111115   -0.09354831236973    1.35524975002925
C         -11.15991986329367    0.04433183616199    0.37084862012268
C          10.16913425366659    0.14764382473589    2.34006647357923
C          11.62694628456847    0.35757759323007    2.41118730887970
C          12.19350039463677    0.24631093764924    1.05459541853678
C          11.11977629909718   -0.03090913033841    0.13352215669925
C         -12.39037955604365   -0.11939158918273    3.78851517498433
C         -13.67060935358083   -0.28479585059415    3.54845278224415
C         -14.21712716538200   -0.35479161798303    2.38041504544005
C         -13.54715480126667   -0.26705865826528    1.25354003701580
C          12.45618234467619    0.61576237772414    3.45244600310137
C          13.72721612435033    0.74749207967662    3.15064809766950
C          14.23621232288693    0.65271281194741    1.96757295391850
C          13.53163102665901    0.40586523268771    0.88639951878983
O          -9.31499530081633    0.28191601326358    3.41259151405207
C         -11.33434395591937    0.03138727057194   -0.98314347166393
C         -12.61156389928316   -0.12850730172344   -1.56447832459410
C         -10.25238424278981    0.18331411462609   -1.87614537798231
C          -4.31272795820156   -1.46390390776162   -0.41563710817117
C          -4.67649716259313   -2.55655370818918   -0.83111890025952
C           4.26115924320743    1.33352724982304   -0.70133403415021
C           4.61820296918493    2.35214737870550   -1.27904456030596
C           0.93496741920509    4.44633448540833   -1.56352093787888
C          -0.99707849327110   -4.67925771896707   -0.80807808452294
O           9.37257021719053    0.16306926358281    3.23551311287804
C          11.25072500875497   -0.20516151852727   -1.21416502909348
N          -9.38015609521049    0.31070824620601   -2.60905577351819
N         -13.64141657867732   -0.25600254283018   -2.05006980456134
C          12.50713644462991   -0.12173889165935   -1.85398049820687
C          10.14204156366254   -0.48215923114328   -2.04205934164711
N           9.24831703726006   -0.71197577522344   -2.72227097356270
N          13.51919059288101   -0.05771014061828   -2.38720948252341
