248
 SCF done       -428.487571682435          0.000362187431
C          -2.78171244916766    3.68137423820095    1.21191451641562
C          -2.98470711946349    3.70045027649324    2.61283258938725
C          -1.97673390676101    3.96920132109133    3.52810822072001
C          -0.69057579535807    4.17130543736214    3.00310459004642
C          -0.48945033506950    4.14769624464358    1.60128392599550
C          -1.50832049811197    3.93593644903281    0.68303443766102
C          -3.98505909974118    3.37036657204501    0.50963188886331
C          -5.04177523695048    3.19681827139176    1.32725269343938
S          -4.65853332056079    3.38712691582708    3.00500682940754
C           0.52076645052161    4.38328077571197    3.71251042430805
C           1.60619486908029    4.54527337041151    2.90153797113258
S           1.18013630634287    4.45351724682850    1.20487271251312
C          -2.24559949664413    4.06583282056278    4.96886634644299
C          -1.24952061137538    4.01639465724774   -0.76113914821060
C           2.97244269022669    4.73784561310525    3.25972608301961
C           3.52507861320194    4.88445006389273    4.51521645821396
C           4.90920463098991    5.04422970603071    4.48914020094341
C           5.44086033185053    5.02151041649582    3.21523272323750
S           4.19037917639044    4.79529740612257    2.02964379899626
C           6.81516517573076    5.18207961090705    2.85235605456114
C           7.28086044332816    5.16663876489992    1.54237744700274
C           8.61627996300818    5.37441243288410    1.17253540464703
C           9.63351510095582    5.61324837236405    2.08661276560085
C           9.19319886358169    5.59787958827786    3.43137249313319
C           7.83623850909945    5.39484131114922    3.81290799772263
F           6.41250530068189    4.94762592557554    0.53314063725347
F           8.88117034150903    5.33620357955497   -0.14766296431733
N           9.90330621109766    5.77500828459006    4.55062730628607
N           9.02772508125340    5.67976010718532    5.51059905326450
N           7.79371871697856    5.45767755369163    5.15254756255609
C           9.41058176968355    5.80860661241330    6.88894445795543
C          10.44781714876435    4.75347285968254    7.25074191190793
C          11.00229392435073    5.88134688744659    1.76509540471334
C          -2.95749421861595    3.05669302508038    5.60918603095546
C          -3.25952256521076    3.16402296278961    6.95724463842120
C          -2.81709437692697    4.26806439868064    7.68153781736180
C          -2.09720050605050    5.26168175399464    7.04847862507114
C          -1.81766561226902    5.17313014767596    5.69562332999923
C          -0.14307255630030    3.36808233712073   -1.30067925176694
C           0.17603371691983    3.52315448753842   -2.64040486311201
C          -0.65450115236774    4.26795301324706   -3.47053098294779
C          -1.77241051181236    4.88513355705652   -2.94249427799222
C          -2.06187091184581    4.78296293807067   -1.59268844336211
S           1.63362668537940    2.79792778904170   -3.33103335963111
C           2.81400523059508    2.93130825951172   -1.92722228956813
S          -4.18258984442852    1.94217505364994    7.83566949618670
C          -5.05916527746240    1.03933226355663    6.50165565539994
C           4.22251796461125    3.11830607067742   -2.45485317119015
C          -6.20247831124396    0.24733811734417    7.10652808497483
S          12.15552745535201    6.06889266201034    3.05400662785021
C          13.42892833927735    6.39703883403381    1.91535583658422
C          12.96273751219050    6.35171846535769    0.62095468938463
C          11.60128658061610    6.05996451207851    0.53594269670843
C          16.56171766349374    6.94907252425146    3.80826211991025
C          17.17420821723158    7.21581310922654    2.55771116030202
C          18.51411955761014    7.54255067572848    2.43038154417860
C          19.25366915744367    7.61955413260229    3.62373759705286
C          18.65258200441030    7.31491799682068    4.87144825021892
C          17.31745617067981    6.96774842116944    4.99520212041954
C          15.17977777500077    6.67639947232546    3.66586945936162
C          14.74923174284085    6.66518305371187    2.37143741217107
S          16.03949090206845    7.03246911474186    1.24288497831724
C          20.61625019124378    7.96917567300486    3.76999998694597
C          21.07952004177799    7.87663646611153    5.04956643834772
S          19.82025288357379    7.39150092901099    6.17085580306113
C          19.15730669655708    7.77876845462465    1.13118032938218
C          16.69174040681758    6.61209883287400    6.27569664941825
C          22.41817833071446    8.10864803494749    5.47151914995019
C          22.96994894751040    8.01877809967986    6.73031119302706
C          24.33729247718553    8.29390426537201    6.75271065809082
C          24.85631215161174    8.60089823108241    5.51167554085560
S          23.61681748602923    8.54239468486700    4.29343375253607
C          26.20952549485333    8.94200309843317    5.19688574407721
C          26.64602963391225    9.30160968562963    3.92671344916639
C          27.96218001822958    9.66718019856510    3.61541336627815
C          28.98877390650153    9.69693539324221    4.54927980316768
C          28.57801386131243    9.31153322851717    5.84778926490164
C          27.23797262973807    8.95389764879093    6.17250811959044
F          25.76835436103593    9.31574016693276    2.90247652041544
F          28.20134435548736    9.99344085357739    2.33037963101769
N          29.29905052536047    9.22890888847982    6.97159786483974
N          28.44457669844030    8.85169167329691    7.87990465084197
N          27.21577591644240    8.67010793870850    7.48323400088886
C          28.83653123511220    8.64969607504013    9.24675008427898
C          29.85602924748820    7.52286185266266    9.35222344387777
C          30.34423101133364   10.07464685910601    4.28487568170381
C          20.37249766921293    7.16118182615612    0.84507462280030
C          21.02373128197154    7.41793636276997   -0.35053952760358
C          20.43038811116730    8.24498788954167   -1.29972246995434
C          19.20823513587047    8.82921500607074   -1.03090602144352
C          18.57769459867822    8.61616468262470    0.18295746373025
C          15.90422951556236    5.46439300939838    6.34624140234414
C          15.23698805853098    5.14401627535191    7.51583894322269
C          15.39281884771901    5.94926941183338    8.64250887884606
C          16.20377744280972    7.06452013956125    8.58321827514175
C          16.84548365138099    7.40820743071148    7.40491521561199
S          14.16131883970308    3.75006015426282    7.67538412551935
C          14.00357811031938    3.11282791189280    5.96333530416572
S          22.60475729305212    6.72147222985707   -0.72991687377374
C          23.36940128428560    6.55775898060050    0.93185784007611
C          13.01467126766583    1.96294978239994    5.94964290197363
C          24.87908449723058    6.54629921054399    0.79839526135170
S          31.54403909907409    9.84356252443548    5.52227694740910
C          32.78662884696729   10.49129269916993    4.49015412276327
C          32.27248385539393   10.86723366716115    3.27019958011230
C          30.90212047607547   10.63047136497682    3.15318973356722
C          36.00105900716572   10.14265054764461    6.28412942605861
C          36.61346244795657   10.75115266991701    5.16147659765369
C          37.98190607102907   10.93957744926170    5.05859727090593
C          38.75953168462314   10.51700874431934    6.15081189158250
C          38.14636063144627    9.89244237634469    7.26779622559701
C          36.78148719335751    9.67345862642303    7.35518324245524
C          34.59473435727652   10.07106410773979    6.14131816149162
C          34.13463092058701   10.52921688750929    4.94245023520952
S          35.43101275497573   11.14697271922103    3.93401231583726
C          40.16309181654249   10.62154259951452    6.30921890364902
C          40.62696526563556   10.07147414164329    7.47071557801652
S          39.33304571314573    9.40644285497740    8.44849593314889
C          38.58640296538468   11.52414576178336    3.85373348279289
C          36.14466132103419    8.95800650568540    8.46867571534098
C          41.97827519741552    9.98899020651202    7.91652209233823
C          43.10685131280245   10.47864103101857    7.29037738919793
C          44.28181993227933   10.20779888096911    7.98701783541238
C          44.07646010527990    9.50538448209505    9.15738276849165
S          42.38509238806156    9.18264107828240    9.39511198610429
C          45.07950903650053    9.06663709474574   10.08061678645049
C          44.81381782524973    8.35667739598794   11.24299971565156
C          45.80087664803718    7.92046680314090   12.13808994291295
C          47.15840529549588    8.14809853433639   11.96623355987136
C          47.46469973072533    8.87377605807083   10.78707604273042
C          46.45995016528706    9.31850074691367    9.87550765509625
F          43.54020591211413    8.05103012430421   11.55893237704790
F          45.36868388297439    7.24154443207008   13.21871650836852
N          48.64631241815793    9.27669325391589   10.29881468971253
N          48.34856856348745    9.90444360329047    9.19675085423876
N          47.08503176632802    9.96744805010574    8.88364934138125
C          49.36331030934844   10.45626826316638    8.34503996596776
C          49.77432896651369    9.44317023609193    7.28073644247666
C          48.17497154618421    7.70364836273083   12.87622832478282
C          38.08596917365813   12.72042315325369    3.34951175207010
C          38.61486266597149   13.26404322519253    2.18991791994132
C          39.67218077204636   12.62701660901911    1.54527922237676
C          40.17464559800918   11.44520998316007    2.05234148298986
C          39.63264020991122   10.88447034950057    3.19621369136585
C          35.22702285730322    7.95088650799757    8.17455080691810
C          34.53641995727386    7.31288007378493    9.18976207651245
C          34.80419855620973    7.64063178973440   10.51735096012763
C          35.74825227449362    8.60444166891997   10.80976096990798
C          36.41074574362366    9.27582751803719    9.79519705442096
S          33.29328120347197    6.08950240382230    8.89665591414190
C          33.01869848167347    6.17021730661962    7.08470212821365
S          38.02376098474937   14.76642122293712    1.47539443302439
C          36.34161443940295   14.93576861953327    2.18630621393339
C          31.86404559501502    5.26125629206056    6.71056920728942
C          35.55454789436996   15.93751960247411    1.36318231514702
S          47.80591206458889    6.80707713063515   14.32336919194447
C          49.46437627793318    6.72214044579924   14.73503184015622
C          50.26094659017487    7.34260536115825   13.82089107956218
C          49.53127572551798    7.90228505398959   12.76135321631963
H          -4.03387605535916    3.26741167691298   -0.55919158200785
H          -6.05193100611683    2.95491147533372    1.05985284075627
H           0.57935028967591    4.38495287542827    4.78554457796444
H           2.94087658012337    4.87939190547533    5.41746086348023
H           5.52504579920806    5.17632659639207    5.35916476992978
H           8.50072202642401    5.70093586977131    7.48108167469356
H           9.82990927135948    6.80787592398453    7.03764859585553
H          10.02806724582450    3.75600777142809    7.14405898702841
H          10.77503565923041    4.88592249966729    8.27744042253547
H          11.30835742906421    4.84961584197403    6.59470720328060
H          -3.24814102076152    2.18565260726349    5.04454745417486
H          -3.05030517855055    4.33625223282610    8.73285837470385
H          -1.76302812518145    6.12092580724648    7.61108508659342
H          -1.28888416107985    5.97015057759144    5.19452759013981
H           0.45679730480993    2.72898833539930   -0.67220791120542
H          -0.40696436418299    4.36724441771649   -4.51586519250641
H          -2.41069993809508    5.47439640469479   -3.58427894588610
H          -2.90210216873610    5.31781661271358   -1.17572482816746
H           2.73842486862635    2.02303306816747   -1.32862486698870
H           2.50467040649069    3.79147978363182   -1.33516556874375
H          -4.34560250183848    0.37587125917976    6.01170936719438
H          -5.42590417175989    1.78305828329290    5.79405091085941
H           4.53636920579802    2.25193368047018   -3.03254201505911
H           4.90825769482556    3.25657883369710   -1.62170007140328
H           4.27319376267601    3.99632369334079   -3.09412886788188
H          -5.82728017906201   -0.46831902685507    7.83449123445106
H          -6.73083864678892   -0.29351421921513    6.32419534024171
H          -6.90204584582399    0.91252511028272    7.60698089373423
H          13.59602090274906    6.52794246153285   -0.23059151234960
H          11.07187721682673    5.99060387742591   -0.39575227376505
H          14.51134736685630    6.51487622201169    4.49248057642512
H          21.23714073740162    8.29937021433689    2.95697087897342
H          22.38980524568141    7.75966998622051    7.59833976148310
H          24.94921146709301    8.27674460747033    7.63522352370109
H          27.92670337730407    8.42028709589806    9.80349141875113
H          29.27229571405471    9.58113414572987    9.61871764057945
H          29.42598871741350    6.58537932855459    9.00818063725715
H          30.17015602038325    7.40050575360892   10.38417870300728
H          30.72848060755969    7.75697023511887    8.74904088278651
H          20.78853041820063    6.46470816333551    1.55631513294141
H          20.93900592422830    8.42520681958382   -2.23393225677218
H          18.75136409093723    9.47523399766758   -1.76551718619647
H          17.64682154371654    9.11529691040249    0.40398848827570
H          15.84052753901145    4.83003994287940    5.47716507037130
H          14.87441808706302    5.68790237558616    9.55222761669118
H          16.32490001761473    7.68325959944923    9.45972076928938
H          17.44532091874742    8.30370606306013    7.35475650489072
H          14.98743249720339    2.77476365820473    5.63737874264526
H          13.65872870931093    3.93231754038108    5.33115868139396
H          23.01113991175267    5.63306033897917    1.38627923814815
H          23.04592926559629    7.41451125749999    1.52152028013071
H          13.35825081812272    1.15815420569096    6.59525036365507
H          12.91182195830431    1.58003117028011    4.93660231170219
H          12.04011045539284    2.29289955169496    6.29980905941875
H          25.20421943757718    5.71832917076346    0.17258958655246
H          25.32996789284335    6.44253879738901    1.78306495490171
H          25.22626469342178    7.47621606645577    0.35565350941744
H          32.87927356090729   11.29262386677759    2.49033251132849
H          30.33845866145700   10.86391979020723    2.26937576287345
H          33.93248293131836    9.70243458460699    6.90387877685936
H          40.79987971842218   11.09718060104481    5.58641281704011
H          43.07651599354932   11.01506425701867    6.35953596370679
H          45.26294579212412   10.50338719401597    7.66594786383474
H          50.21409543547215   10.71687029026806    8.97688134258158
H          48.95177576663360   11.35358932554670    7.87894275544166
H          50.17059163000337    8.54544493576510    7.74880994135608
H          50.53957606923633    9.87163467990450    6.64015827459767
H          48.91646002932124    9.17201117099077    6.67044231747226
H          37.29894068350897   13.22344367954025    3.88801825597140
H          40.08245013873800   13.06451580601461    0.64830911043286
H          40.98743345400731   10.94825145356558    1.54360358196972
H          40.00176646403565    9.94075404486767    3.56894045177484
H          35.08086981626812    7.67382582245391    7.14329727499089
H          34.26860642298586    7.13199195094983   11.30413612458795
H          35.95919714253203    8.84901741672605   11.83988054442869
H          37.11557106494725   10.05776419751465   10.03155965478800
H          33.93488952990103    5.84513192746862    6.59126911353777
H          32.79731242035629    7.20613205214772    6.82406016525928
H          36.43792281677094   15.27428260147050    3.21855886836614
H          35.87775446538154   13.94965976267632    2.15772991775574
H          32.07076165842348    4.23780528137496    7.01423020320350
H          31.71556228975234    5.28406541287101    5.63314637247306
H          30.94769977502328    5.58679699815179    7.19544675449249
H          36.04171101489393   16.90978048128770    1.37915877775847
H          34.55089682452344   16.04214989211340    1.76999735046499
H          35.48176984772240   15.60642495784954    0.32999299427723
H          49.75705708266994    6.21601181925789   15.63370431804736
H          51.33171734170978    7.39731383693179   13.90338434829315
H          49.96461923124440    8.43515487428385   11.93624813531522
