88
 SCF done       -163.269303947044          0.000497302139
C           0.64551387924019    1.52200824581127   -0.07323262572819
C           1.81629351339977    0.82359094936907    0.04614678061819
C           1.85238978507884   -0.57898488604024    0.12880201890554
C           0.69573575510059   -1.34078820526712    0.07843165962650
C          -0.52263226603289   -0.61918538321768   -0.08515736338582
C          -0.55661779743192    0.79654494676676   -0.14026569748057
N          -1.66359024620447   -1.31388777981100   -0.14224706224515
C          -2.81812167999432   -0.69447580986907   -0.23409458358285
C          -2.84404378324778    0.73752711619570   -0.33883006144482
N          -1.73345695813440    1.43520696746536   -0.27804624668824
F           2.98342025230445    1.48667499742338    0.10397680773993
F           3.05905250392136   -1.15397937929592    0.27745286641162
C           1.66846670357647   -3.66960255207601    0.41480768500701
C           1.23639709235194   -4.98324195275520    0.59873392491681
C          -0.13567844056871   -5.10397166175915    0.58300678218951
S          -0.90118743801002   -3.55763897792527    0.31562330448342
C           0.63803610824006   -2.76940534726381    0.24044329203484
C          -4.00345686317794   -1.54749393072210   -0.17862008516523
C          -4.00162974230740   -2.74199090507027   -0.89755205212654
C          -5.05702004548754   -3.63543866025928   -0.83302435816138
C          -6.12356741073978   -3.35841893727692    0.05034883662034
C          -6.11638658664209   -2.15482340273275    0.75337299543932
C          -5.08922655741418   -1.24469604115236    0.63530115564641
C          -4.07955337508077    1.49425028260527   -0.54590611891807
C          -4.24101160066394    2.72598630302763    0.07675339855610
C          -5.39930954441588    3.45248434134107   -0.11484561459188
C          -6.42040500540752    2.99743017756492   -0.94352637724555
C          -6.25723565038496    1.75579839458708   -1.59519505341166
C          -5.09083436717613    1.03258790488947   -1.38075976461724
O          -7.56993434430736    3.70078623065205   -1.16798003402590
C          -7.75606246923977    4.95174342138603   -0.53575316691300
C          -9.10792118244251    5.48860451094160   -0.98043398946583
O          -7.11889853955816    1.15974404563488   -2.45904283607143
C          -8.44089386993422    1.63307763210838   -2.65662965095639
C          -9.14400780154409    0.62075864795724   -3.54857586683558
O          -7.20580165250892   -4.14242228939923    0.26928112204794
C          -7.15091786124127   -5.54320673763861    0.03799133893280
C          -8.29175090577415   -6.17549945453857    0.82122074234679
O          -5.15048096631511   -4.76566509450309   -1.60091902319548
C          -4.23512772525405   -4.98390887763067   -2.65512580650902
C          -2.95065326215978   -5.67290869004069   -2.20450702307802
C          -0.92938579107515   -6.30013145586130    0.72576375890416
C          -0.43159544812704   -7.58385980516996    0.45833914845641
C          -1.20947954203463   -8.72258245693061    0.56681841193693
C          -2.55834757101054   -8.68510115973674    0.94590467162084
C          -3.05187267710822   -7.40400065174645    1.22760047474546
C          -2.27556008108198   -6.26510932853542    1.12085822597730
C          -3.37928675461154   -9.87125983171720    1.04081498084676
S          -2.67048748580399  -11.44694911780200    1.25779993960104
C          -4.21523210692742  -12.17814272968194    1.29043668479724
C          -5.22099904500370  -11.27559814768656    1.13047705996955
C          -4.74983944168368   -9.96009203338522    0.99156723711525
F          -2.85713265095563   -5.09573716996290    1.43012295957030
F          -0.63712021521096   -9.89983069013493    0.26613934747857
F           0.83721792472560   -7.73998786637217    0.05074964401396
F          -4.32275305113038   -7.24638377119903    1.63549536455748
H           0.63647281758826    2.59767428272783   -0.11875833533748
H           2.70696448870332   -3.39658002233769    0.41150380437495
H           1.91499660816471   -5.79968296731253    0.76242209252110
H          -3.15209044994166   -2.93839646179638   -1.52976386047133
H          -6.95321547853778   -1.96071209309359    1.40533894854063
H          -5.10634083114548   -0.32997800994502    1.20646681134230
H          -3.46082601958706    3.10345818103571    0.71759558652449
H          -5.50204777398821    4.39971605680977    0.38932040994870
H          -4.99171384298167    0.09960244976354   -1.91153056573413
H          -6.95794619066948    5.64713530110027   -0.82930037046667
H          -7.73715753407596    4.83069193380437    0.55611837488108
H          -9.12412807133076    5.60839454420925   -2.06026059171273
H          -9.29373001641734    6.45100347443853   -0.51259296881878
H          -9.89556511909005    4.79581423142281   -0.69703547736483
H          -8.42682573974534    2.61763283952798   -3.13678372291785
H          -8.96047958742181    1.71805084138885   -1.69584324890374
H          -8.62106427706687    0.53624616161067   -4.49734294754320
H         -10.16689950347731    0.93748640453095   -3.73136890648836
H          -9.15058477887587   -0.35463671733381   -3.06963182590615
H          -6.19071729317602   -5.93982357755967    0.38058510049432
H          -7.26020925963991   -5.75468618160248   -1.03157136684403
H          -8.16461607707677   -5.98635670602696    1.88359638326870
H          -8.30542568860640   -7.24817344899044    0.65005158311027
H          -9.24052138841305   -5.75152281998689    0.50367934769550
H          -4.01243887430901   -4.04262992918908   -3.17124280227054
H          -4.77476412606368   -5.63748845535235   -3.34830978102635
H          -2.41274756354873   -5.05959850435483   -1.48706027459398
H          -2.31150509061330   -5.85083574143644   -3.06495286184503
H          -3.18557802551646   -6.62749007802072   -1.73887239493664
H          -4.29203638642319  -13.23924367166297    1.42226518217035
H          -6.26306730612383  -11.53886704988683    1.11310830040311
H          -5.39957733787201   -9.11821820998460    0.84396821875029
