251
 SCF done       -440.496798815732          0.000885780165
C           4.13515041030648   15.57412247807599    3.90669903937459
C           4.69695829853178   16.64530322629606    4.62591150852455
C           6.00880499672126   16.54873927646636    5.14223541235527
C           6.81473256615817   15.42099579737764    4.98653303779855
C           6.23228452546726   14.33117271959405    4.30768681421723
C           4.91609245628351   14.42922497724753    3.79449572747337
C           4.09763416260855   17.90103203165542    4.94011091569065
C           4.92098668372790   18.72189974603056    5.62160265732470
S           6.47128189598012   18.02760106491857    5.94436242181249
C           6.79924533651919   13.05985169091070    4.04342670082166
C           5.98387914988600   12.22847090572728    3.33603196485141
S           4.44081174673006   12.96786068811989    2.96990825345954
C           2.82816123576457   15.68372035010224    3.29188951715888
C           8.17221419899985   15.39256523998967    5.48246174038809
C           2.31465754175959   16.73809085412093    2.59114185431032
C           1.01152430168821   16.52167388119065    2.10474800757373
C           0.52538441981322   15.29177308088452    2.44321252738801
S           1.67477271715076   14.37459115598428    3.36411901418540
C           8.67684341566847   15.95713536065333    6.62366163002273
C          10.05582998203550   15.76055301252160    6.79731860466271
C          10.62429653996977   15.05302747967441    5.77472370686301
S           9.44990380807817   14.62105365056845    4.57403211531790
S          -1.01615591128485   14.54860498069587    2.09542436314092
C          -1.83405899682748   15.85598324712112    1.10334789652794
S          12.30815641692534   14.61942765657332    5.64723358060989
C          12.26750985197528   13.48658470343209    4.20590532630407
C           6.28206936856537   10.91108568941589    2.88308158509126
S           7.87946380757382   10.24497612687902    3.07061994399075
C           7.42693315058775    8.76523475983818    2.27428906068864
C           6.08655401784856    8.80270704245007    1.90263435725781
C           5.46198386839206   10.02203538871538    2.24515219488369
C           8.45311216398381    7.80170500544087    2.04812400331756
C           8.51709723400124    6.76546120499094    1.14207262763345
C           9.74418242834742    6.10358437904291    1.13547037855620
C          10.65150740312254    6.61277642896462    2.03659376967944
S           9.95439257106847    7.93611988183096    2.92480762877712
C          11.98045593192275    6.17702966661970    2.32310986692418
S          12.58221596076781    6.30985115289083    3.94883349925107
C          14.11872937922576    5.26497825456216    2.17608280738776
C          12.93026495925926    5.59782813363824    1.49267257713678
C           5.30481270241877    7.70700732167275    1.30441899667936
O           4.12974457947120    8.16268811437776    0.84419453678832
O           5.63544146725346    6.54701999220300    1.23813846119924
C          12.80621897156496    5.43157000685735    0.03408162862098
O          13.79706405653158    4.65971896661586   -0.44037966709648
O          11.96336655351910    5.93547090802625   -0.66794206551532
C          13.80773391156429    4.42107622176843   -1.84630561158634
C           3.23372912113219    7.19870473766090    0.29569256704563
C          14.10078690893038    5.57777816141317    3.50802649139584
C          -3.20891880526299   15.37422011953265    0.68305171146347
C          13.64421039350421   12.89672897652355    3.97724084984336
C           2.42325723382092    6.51107382010937    1.38550777577523
C          12.86384072269335    3.28936289197248   -2.22788483926432
C          16.50372251029914    5.06064356566831    7.87781995800439
C          16.26085605374278    5.10787180294801    6.48974704647589
C          17.27796519827936    4.73564406631680    5.57835835170719
C          18.55561900522435    4.34526371946198    5.96760203061637
C          18.81079942919489    4.34461151229890    7.35404891645432
C          17.78655405563745    4.69126081869160    8.26880854620935
C          15.06547761091489    5.47989181144503    5.82411773096084
C          15.12686919012297    5.34354518540657    4.46948568219556
S          16.69804393417695    4.78147317192235    3.93451445715398
C          20.01587744919986    4.01379715278655    8.01805907617955
C          19.92053034653695    4.04737294420263    9.37814175311444
S          18.32836669722715    4.53038759153938    9.91876065845352
C          15.45543598177158    5.34954547264274    8.83246228266743
C          19.54148339787958    3.93620150635891    4.99045915454560
C          14.14429053129173    4.96448099178631    8.79125433100519
C          13.38403124253114    5.40608165437093    9.88931974750478
C          14.12037135805553    6.14219164974031   10.77339534617571
S          15.77280733901655    6.29282353237245   10.26804305707222
C          19.76402606593286    4.46199436739552    3.74810694585529
C          20.76687393606820    3.80116913694433    3.01582243332254
C          21.30622853122118    2.74788496455675    3.69705667625227
S          20.58965726383642    2.56371754826334    5.26508152625445
S          13.65428794316887    6.91175529350007   12.26845862526300
C          11.85265921759705    6.57177417311872   12.30619683713221
S          22.56100323703863    1.62318462948224    3.24059410732926
C          22.91268633064199    2.15041298179397    1.52041152197935
C          20.93930612128527    3.71350355069094   10.31665114552962
S          22.56954017168297    3.41595568881680    9.78054624193748
C          23.09963067951470    3.05324148068162   11.39981657365571
C          22.04540731411409    3.16964324088478   12.29089633551001
C          20.83448247255949    3.53761456537216   11.67060703168707
C          24.44423063232996    2.61107969796003   11.57519855049696
C          25.49592967978165    2.86865745746579   10.72025968429055
C          26.66965618478716    2.21834151475635   11.08487989943974
C          26.53619866460101    1.41901360355924   12.20600585757096
S          24.92642685676460    1.53079031359909   12.84622650489096
C          27.56346872146097    0.58444177286174   12.73159898598747
S          29.17386354967860    0.82020568556483   12.09488179770902
C          28.79544141100012   -1.15339819234890   13.68484735672945
C          27.54503304476129   -0.50656630496663   13.58795554396572
C          22.10514806611785    2.99924923900436   13.75538583284518
O          23.30999630671794    3.31555987969521   14.24630169919037
O          21.17078479382866    2.64293658984515   14.42930888506847
C          26.41896961182549   -1.06046597504830   14.36336154604396
O          25.56656773395915   -0.11983079241364   14.79352846615809
O          26.32349846978121   -2.23087697098327   14.63845147527956
C          24.47577110877120   -0.56000231840717   15.60626297428993
C          23.49110120988963    3.20978986260436   15.65691177205595
C          29.79038254098528   -0.56033725480595   12.95727415949774
C          11.24862915986905    7.22692521386341   13.53294791260594
C          23.95645903730057    1.22774556794416    0.92188990047709
C          23.17708639795910    4.52844171874368   16.34843366791683
C          23.24674063045511   -0.89502063806368   14.77491666488923
C          34.66126810605219   -0.44409451535134   11.81124431949235
C          33.41955801391452   -0.90901515058160   12.29091731588590
C          33.31922536754600   -2.18789971938385   12.88906076993320
C          34.39334347085199   -3.06606293895973   13.00543368526334
C          35.61722113375902   -2.62958856248428   12.45701912601987
C          35.72270364498910   -1.33919020145516   11.88225363387820
C          32.16955586938432   -0.24452711192138   12.25123895607944
C          31.15781566855812   -0.94266376537436   12.84114931618340
S          31.70052483866787   -2.48428319041493   13.47021024604607
C          36.83979420917895   -3.33962518956182   12.37596075132500
C          37.85124614592723   -2.62782986899675   11.80218205223411
S          37.34201652613918   -1.02425017671338   11.31980869420350
C          34.80804970067148    0.90516985683948   11.31122333347694
C          34.24810291531438   -4.34738330968641   13.66134343748262
C          34.25988014473558    2.05008393276288   11.81984137511335
C          34.61063243418457    3.21523178275287   11.11430784756304
C          35.43005869303230    2.95644564913199   10.05288887255660
S          35.78996477543507    1.26496770954020    9.91276328261706
C          33.17901450876040   -5.19917327899462   13.62210773966927
C          33.33484651840268   -6.35288336010028   14.41097004975259
C          34.52923765054037   -6.37940264862361   15.07256959667497
S          35.48872267446851   -4.97914722612380   14.71997832681585
S          36.13371808106248    4.03970555418753    8.87870059863235
C          35.46493664132687    5.65538411623827    9.43135560734011
S          35.19727337199897   -7.56956460084084   16.16037935808503
C          33.89967596606995   -8.86407385166732   16.12319344688908
C          39.18939385396567   -3.05455291682934   11.56608924317331
S          39.70355494343615   -4.66665932819537   11.96690403976389
C          41.31674469298272   -4.37156687600155   11.38017994704745
C          41.43136608700324   -3.06568098328818   10.90955045069710
C          40.22372991231777   -2.34205702977986   11.02469412187082
C          42.24939776211342   -5.44386991113817   11.49695769605935
C          43.50170692363360   -5.61793433756891   10.94944800735941
C          44.09462547119036   -6.83456982293783   11.28990396844918
C          43.31478652311210   -7.61962238873032   12.10807120103190
S          41.80407201730706   -6.83795013500280   12.45029296644106
C          43.58285398662412   -8.93241079642553   12.60948708296866
S          42.27153392462807  -10.05444828162728   12.81458992443393
C          44.64259880304727  -10.90084189039104   13.26472453875493
C          44.78989070351898   -9.53751907318477   12.90322024158642
C          42.62154725257908   -2.40253892815095   10.34901359847506
O          42.49803850849081   -1.07054708440465   10.44606199678469
O          43.58588657417395   -2.93698265753478    9.85394087557066
C          46.11781846547031   -8.89672732645756   12.95274133519120
O          46.04033343379973   -7.60126885288712   13.28297565281560
O          47.15316775640353   -9.48319465219910   12.75241967585616
C          47.26908870261618   -6.88172170776698   13.37916059012864
C          43.54872716846101   -0.28087726413777    9.89296938748801
C          43.35178605282663  -11.31083547344980   13.27255914573376
C          35.97201057310137    6.74699221448888    8.50940346014098
C          34.34145949354956  -10.03459159490064   16.97968060885256
C          43.36644860059305   -0.08350716080920    8.39460806714522
C          47.91177637126131   -7.05891284819342   14.74722611413365
H           3.08617417194827   18.15342390668165    4.68066271943074
H           4.71870541528295   19.71164183713785    5.98159958674688
H           7.77335597857691   12.74781344496452    4.37206458743071
H           2.87136129135471   17.63557066003331    2.38787268443938
H           0.47371592332282   17.25093811914882    1.52799080082431
H           8.06516663654035   16.46293051955015    7.34820153638785
H          10.61588284818356   16.11630723497140    7.64207508978487
H          -1.20315483509331   16.05211669128681    0.23644564453622
H          -1.90237869245820   16.74780003275304    1.72626581771668
H          11.93498915984620   14.06697711233387    3.34460783401833
H          11.53501703599574   12.70908632731772    4.42557216238068
H           4.42891359699277   10.22926341853927    2.03282945481897
H           7.69630908886279    6.49359205397120    0.50742783357591
H           9.96431663794727    5.27392744320715    0.49148264431162
H          14.96477097570813    4.81166962235620    1.69253207868446
H          14.84322338089857    4.16539766713319   -2.08079966021325
H          13.52240109263566    5.34217702684394   -2.36548312173797
H           3.80875467821944    6.45893718917809   -0.27141082770365
H           2.58773352303888    7.76562888634809   -0.37798139376488
H          -3.12856028787313   14.47002315396421    0.08444223756510
H          -3.70415132982984   16.14205492126387    0.09271968905439
H          -3.81907632343787   15.15626819336818    1.55631076789316
H          14.36830128505726   13.68344645400981    3.77869702929223
H          13.61625273478392   12.22198737691245    3.12456801001620
H          13.96986641741706   12.34015826587562    4.85281902297925
H           3.08432070703879    5.94514769155922    2.03751498464439
H           1.70759567884348    5.83069011770653    0.93303333348035
H           1.88803656492414    7.24918598342450    1.97826312429776
H          13.11111009853099    2.38923427773972   -1.66990340968475
H          12.95084751884754    3.08486984010516   -3.29111582736922
H          11.83755487450535    3.57236770593963   -2.00732475207946
H          14.18935551060254    5.84715824950479    6.32689388746747
H          20.93034569934151    3.75304901443477    7.51755188893419
H          13.73878776560294    4.33719329301778    8.01763627875233
H          12.34167759128095    5.17658998825952   10.00909608224252
H          19.25119586280091    5.32947467203897    3.37423688275765
H          21.06669371439328    4.10431356794883    2.03014659694592
H          11.72238873777135    5.48994081428419   12.33348510864928
H          11.42414561560662    6.97801222515694   11.39013074614806
H          23.27096785225880    3.17922229727232    1.55798902934434
H          21.97601711444036    2.10024398122683    0.96545696740838
H          19.91762731101947    3.66760655072768   12.21731153334728
H          25.40504243936351    3.51418571270834    9.86465985927948
H          27.59309997837792    2.29844211212661   10.53888703957998
H          28.94522272012677   -2.02991358977313   14.28967232732161
H          24.27519119561826    0.26692463976306   16.29056033401703
H          24.80080324279258   -1.44112963200170   16.17000122997407
H          24.53915900542052    2.93080472450328   15.78943275548664
H          22.83770343271199    2.41765065095420   16.03769150439521
H          11.70246831473570    6.83069956838178   14.43813735930721
H          10.17846620159549    7.03428974711252   13.56465780104989
H          11.41013001198782    8.30196742874880   13.50836358169308
H          24.87563896648075    1.26607629764256    1.50170095253038
H          24.17421585777566    1.53087054488890   -0.09991825313399
H          23.59707721674253    0.20140605671331    0.91348481040718
H          23.78924069705186    5.32560364518752   15.93369949816571
H          23.37952324866965    4.44060399074814   17.41200346054250
H          22.12844464942100    4.78015068690769   16.20898335293152
H          22.89696963687595   -0.01932480668057   14.23444242954725
H          22.45397734537825   -1.24384614191893   15.43035495152968
H          23.48318019490601   -1.67992105006396   14.06071772251541
H          32.01304723988896    0.70909053357047   11.78042202497200
H          36.97613769316581   -4.35028056088887   12.71479746542776
H          33.65531864508203    2.06784864244224   12.70892405385539
H          34.26873401383512    4.19388953340020   11.39514479461018
H          32.31004014260586   -5.02912600610708   13.01292631274145
H          32.58674098627567   -7.12048430978264   14.47690855468223
H          35.80227007741938    5.81672868375178   10.45518105072832
H          34.37756741616693    5.58774332760620    9.40158631634065
H          33.76741117224312   -9.16371815047271   15.08368730980256
H          32.98023620251799   -8.42053214502227   16.50508031313442
H          40.12335650787526   -1.32012026844358   10.70675290109048
H          43.95937034450797   -4.88812509733653   10.30936761161841
H          45.05575292653963   -7.14676506670116   10.92476920735677
H          45.48279968599988  -11.52048336973210   13.51973545665560
H          46.99818171560862   -5.83873826638228   13.20076714505181
H          47.94893482712853   -7.23235718010532   12.59520157646299
H          44.50736422929580   -0.76968014729196   10.09668187558582
H          43.49515219647075    0.67105972010430   10.42533843666896
H          42.96085448387517  -12.27762000044570   13.51900456480871
H          37.05838525377862    6.78763527096700    8.52954830185873
H          35.57966299929348    7.71026511577171    8.82804742824362
H          35.65295506641733    6.55998495153208    7.48683893105152
H          35.27192901828371  -10.45204688827049   16.60226692319514
H          33.57856890207088  -10.80991194251470   16.96604449186666
H          34.49830377808638   -9.71637804378256   18.00760635339734
H          43.43162012010623   -1.04115251864679    7.88382980360045
H          44.14592500283946    0.57129892372563    8.01582903172152
H          42.39579995575210    0.36161672422101    8.18920456801539
H          47.21831867667579   -6.75892970835188   15.52922668270032
H          48.80759931893697   -6.44790792690045   14.81103904677963
H          48.18439055316676   -8.10087712399713   14.89616564802059
