290
 SCF done       -514.705073991220          0.000279563461
C          19.63855633894989   17.87649580786173    4.77179249349745
C          20.06761800927168   17.32802285342697    3.54070963182087
C          19.40533958550806   16.28531484145457    2.89665672618030
C          18.28415537815363   15.75288917052233    3.56157416804628
C          17.85731412531300   16.29946346840755    4.79685861554168
C          18.49098300307794   17.37302675615107    5.41117989380639
C          20.50100989599350   18.92512829207627    5.20854849210357
C          21.50374024811613   19.17636499089969    4.34339817695992
S          21.48141485732224   18.15731950406283    2.94706999222001
C          17.46051233653919   14.67600721053506    3.15606329787963
C          16.42512844005908   14.42117603065375    4.00586724766969
S          16.42690510202942   15.49502034035616    5.38814066627394
C          19.84099988342484   15.79495533666214    1.60476142014130
C          17.98918724644049   17.97059766084944    6.63380757313210
C          15.40895146546626   13.44078389048873    3.82533803450246
C          14.33833878940930   13.13532360094965    4.63648071186436
C          13.50511123444534   12.15078401500937    4.10242845506651
C          13.93131303956037   11.69204089857742    2.87476774771612
S          15.39328750111734   12.48036824570316    2.37759465112776
C          17.85452721060409   19.29836803010159    6.92303962153266
C          17.31842644339684   19.50554938453887    8.20913613679445
C          17.04984404857953   18.37389521775991    8.91943563959964
S          17.45555285527323   16.98665804572376    7.96795097127284
C          16.46212297109864   18.25157920701999   10.28249864369764
C          15.06352794380246   17.63499341802129   10.23187839751039
C          21.11967222661380   15.62370738819103    1.15386303719877
C          21.15484209789155   15.14794165441554   -0.17106119044777
C          19.93985713078159   14.96592450436508   -0.76226755318711
S          18.69175534571218   15.38965109632858    0.35605465752969
C          19.63391556557136   14.45236620274541   -2.12672085554132
C          18.86202685401329   13.13296907764437   -2.07182191163868
C          13.29541262539949   10.75682965070074    2.01470858411352
N          12.17253452557556   10.17463747656548    2.25620327702502
C          11.74769835291492    9.40106717685459    1.22995371226435
C          12.61747475493238    9.38659701619678    0.10638467523440
S          14.00585473470257   10.37484450289142    0.43875316475814
C          10.52245096474338    8.69784428903663    1.22057157676269
C          10.22650209730167    8.05978189719043    0.01605557176575
C          11.10047734993532    8.04180029989128   -1.10432000279952
C          12.35191597379508    8.69371734215131   -1.07280878946921
S           8.76069192437250    7.21778453918882   -0.38832153922420
C           9.41146961358777    6.96227529232683   -2.01438728415839
N          10.60272063591428    7.41858748324798   -2.19637267179951
C           9.66246391309812    8.68460687133279    2.37318387857113
C           9.96154778143413    9.07819411638445    3.65423550924030
C           8.89064859871821    8.93170145029036    4.54986298862187
C           7.76129079002857    8.43183969864294    3.97210754836760
S           8.01328513780299    8.12033343726364    2.28918927865434
C           6.45298348190182    8.11390053581444    4.60856169504602
C           6.25348330806679    6.60239867766202    4.74015233083765
C          13.24387634333068    8.65166040452267   -2.20076394515121
C          13.21775778078366    7.78827589692061   -3.26675045467487
C          14.24071343606902    8.02090626387442   -4.20096068312659
C          15.05493913341536    9.06258569583371   -3.86950614975515
S          14.56744452041537    9.77528426807005   -2.36934884251872
C          16.23907896373469    9.59174213594526   -4.60246509248060
C          17.52150104623913    9.44021414200971   -3.78296959161610
C           8.61445196085816    6.39724427116409   -3.04659556859422
S           6.93358572341749    6.05104971345040   -2.79685108073307
C           6.72663142377922    5.67263386559232   -4.48157219103664
C           7.91933964498820    5.77747680386212   -5.16407670698774
C           8.98221250304169    6.18391287082308   -4.35801212964765
F          17.09535020646250   20.73968976359949    8.69935989185932
F          22.31291562165197   14.88994954469304   -0.80633099323971
C           3.10018094264146    5.39229425505733   -5.15619980050695
C           3.44303114856266    5.44864990442684   -6.52977564457119
C           2.50760129156835    5.58901952282182   -7.54926124813680
C           1.15945824874931    5.68803798275964   -7.15154189522343
C           0.81239699913531    5.59377595231506   -5.78083728932856
C           1.74771734215533    5.44293604661929   -4.76518924740171
C           4.24782858483679    5.37312414426497   -4.32729282767932
C           5.42364722446881    5.45870279358273   -5.01430232677031
S           5.17212450676939    5.46863769076017   -6.74917305608905
C           0.03223158122902    5.97085629589425   -7.95599556591670
C          -1.12142707567253    6.15017045087114   -7.24891095432580
S          -0.89484770090827    5.86065074346561   -5.53706069842600
C           2.92963952234955    5.70358400053028   -8.93149568780796
C           1.35586897180679    5.40267426592625   -3.36884929932717
C          -2.33366311224543    6.69946907842839   -7.75455654228652
C          -3.49644006052112    7.01268380686782   -7.08494706060414
C          -4.38202100117432    7.77980404590729   -7.84481080541163
C          -3.90697943396435    8.05873210534397   -9.10796434171795
S          -2.36222768602271    7.31752711457751   -9.37921009032272
C           1.88888920162998    6.07908409382759   -2.30983578347849
C           1.22238382500178    5.77908215355510   -1.10500976082032
C           0.20087011613505    4.88292366754474   -1.20845367689330
S           0.03267935225290    4.39024521509014   -2.85810122910349
C          -0.70467430777310    4.37956252930223   -0.13844758522114
C          -2.14327704755891    4.84772849204548   -0.36111953916708
C           3.92099676609462    5.00343348799866   -9.55937057661613
C           4.09015724891030    5.40891624241750  -10.89748120250579
C           3.27160794734034    6.41677031747398  -11.31277955809699
S           2.23667796487554    6.88576223184310  -10.00983309031120
C           3.18393296865395    7.05497004847604  -12.65601298726065
C           1.79550659617624    6.88299255733493  -13.27286835004552
C          -4.41304174310984    8.98275996463925  -10.06248094899829
N          -5.36131664260786    9.82549516550783   -9.84151050345152
C          -5.48474542175877   10.74886117364395  -10.82379425842346
C          -4.56923693185429   10.59108734749234  -11.89887330033842
S          -3.58481530860742    9.18915373299072  -11.61457900331823
C          -6.36282538943067   11.85372948572068  -10.76167762616238
C          -6.17423545057357   12.80174226400894  -11.76756479801671
C          -5.26046702481207   12.64070394726177  -12.84365695431828
C          -4.45570442376377   11.48584763845574  -12.96158160037616
S          -6.92067924114915   14.36763701900179  -11.87853627077615
C          -5.91707237742421   14.69255273652018  -13.29931685380079
N          -5.16743427412606   13.71057660793018  -13.66569841190604
C          -7.32798823483564   11.97724769884227   -9.70367633980418
C          -7.72884663650489   11.01213699494996   -8.81264297318121
C          -8.70364986909173   11.45720163274475   -7.90609107962074
C          -9.05938328673674   12.76135250224840   -8.08503941609155
S          -8.18836361966358   13.46507391414910   -9.40373877075170
C         -10.07245355974486   13.56051844812589   -7.34146586618258
C         -11.31807651351747   13.80970908343698   -8.19470527535672
C          -3.55854100079713   11.30972327517330  -14.07144738831965
C          -3.51937202103084   12.01738279645663  -15.24716022185785
C          -2.50879752357604   11.59260990160070  -16.12473482360748
C          -1.76619933497380   10.55736181452303  -15.63981354173334
S          -2.31515097495434   10.08542012185008  -14.06794773121711
C          -0.60044368380375    9.87105900490604  -16.26344689127889
C           0.69963660831474   10.20949811848028  -15.53080343799322
C          -5.87806625470062   15.98158777687612  -13.89795876606944
S          -6.59673767089977   17.35402466992199  -13.11744782060794
C          -5.92747356243773   18.42610147333889  -14.31147506928472
C          -5.22467236122115   17.72653194260053  -15.26870107578398
C          -5.19186840133346   16.35223447422403  -15.03437139417069
F           1.57781504179240    6.33955508407434    0.06590019849523
F           5.00014390102427    4.83647690189089  -11.70730842731131
C          -6.47676599961465   21.92272757467051  -13.22338723288610
C          -5.72424770826033   22.30575756111337  -14.36067810797369
C          -5.36626761802346   23.62183247408021  -14.63657186054832
C          -5.80294518994011   24.59873992063466  -13.71843320204227
C          -6.56740029827209   24.21489405372316  -12.58819484607931
C          -6.90868668928215   22.89836809653571  -12.30430764639704
C          -6.66228340482242   20.52073579470435  -13.15887487500794
C          -6.04490339510815   19.83716633486885  -14.16531777119836
S          -5.24394941484003   20.91300983184512  -15.29362214231412
C          -5.56645795247800   25.99413543826228  -13.74155445779684
C          -6.08276029272598   26.65794221314240  -12.66427536022766
S          -6.93359488630988   25.58372241340580  -11.57703063377872
C          -4.54916880768979   23.93630416134711  -15.79141479681339
C          -7.63914085486850   22.53671340837583  -11.10515545425018
C          -5.96301844970181   28.04370907397956  -12.35444298950034
C          -5.29136351072849   29.01889226361786  -13.06380299842693
C          -5.32361799348948   30.26896256974439  -12.44938682589022
C          -6.02208550919462   30.26993501331047  -11.25896767345698
S          -6.65630108289415   28.69684807622319  -10.90168354980832
C          -7.39267206703899   21.50893720455295  -10.24006641562246
C          -8.31622252043940   21.48338720627466   -9.17676651691318
C          -9.27168568840743   22.45505401177527   -9.20853986732933
S          -9.02563212086539   23.45995195353626  -10.59439856928855
C         -10.36375615669704   22.71587639571338   -8.23013335330032
C         -10.14385128796818   24.03677004530940   -7.49141090533107
C          -4.61650039657217   23.37935968760585  -17.03727792526468
C          -3.62184567678128   23.88208409093854  -17.89800245518522
C          -2.77676300100952   24.79773198831556  -17.34593048481190
S          -3.22876282295319   25.07174469353847  -15.69858648883891
C          -1.64499554264439   25.52317147590277  -17.98731411250800
C          -1.91313022998790   27.02653303186496  -18.06507543621905
C          -6.20475319113490   31.37176581667897  -10.38509408895901
N          -5.67622254986954   32.54741051690097  -10.58293862831756
C          -6.00820128616151   33.35102605090322   -9.56857723346965
C          -6.79488870429887   32.83504335933927   -8.57540898319900
S          -7.18627239246584   31.20527217545359   -8.89080325732800
C          -5.90104923424911   34.72579087462466   -8.95068677784649
C          -7.09153232411915   35.60455374704526   -9.23532691068775
C          -7.90127056831715   35.08185784607383   -8.26745776971198
C          -6.87735182476961   34.09597345331363   -7.75479529458914
S          -7.90610996797411   36.80820768996712  -10.13184213946271
C          -9.31811442350843   36.49087955080415   -9.06268611189260
N          -9.14325303441027   35.56825747412059   -8.16450196213424
C          -4.59573869260834   35.27731633215362   -8.62408172140357
C          -3.37355243846864   34.69402121972782   -8.77931420792116
C          -2.32653097163822   35.47098672235713   -8.24153895522098
C          -2.74831158141529   36.62760672105292   -7.66338602272884
S          -4.47198653078424   36.79155321085359   -7.78019356529699
C          -1.93173145342051   37.69973662308406   -7.02811795605644
C          -1.85807210844783   38.94343083224635   -7.91614983073506
C          -6.46416165762197   34.13314252581961   -6.36109193422464
C          -6.84480181220362   35.01647662244867   -5.39510692364757
C          -6.15530784247102   34.82566392746303   -4.17981361068647
C          -5.24291087980619   33.81782272715612   -4.22403802137000
S          -5.21951504253189   33.06474773590287   -5.78694640021234
C          -4.37056945315220   33.30718813977226   -3.12943648254319
C          -4.92086298976755   32.00340103554708   -2.54692038642149
C         -10.51539604749949   37.23291843472405   -9.23708627568809
S         -11.87912669779717   36.94787111320261   -8.19971776139872
C         -12.78753078242462   38.14709136596237   -9.02527200450684
C         -12.08642484014759   38.73079213537511  -10.03644861283848
C         -10.78776346839427   38.21207366399315  -10.16145961865762
F          -8.25665071981131   20.55773758205819   -8.20142281005845
F          -3.51422834057653   23.47941293016923  -19.17740294336026
H          20.37627195537175   19.44428473581046    6.14060228212363
H          22.28571225538111   19.90470547534946    4.43330148017202
H          17.62040004623681   14.09265218325526    2.26835385736920
H          14.17164907353410   13.62447946169181    5.57990859371617
H          12.61213658049216   11.78338492699823    4.57308566488984
H          18.08136959525099   20.09776383098073    6.24230956844646
H          16.41381421580753   19.24809334598717   10.72665110935721
H          17.10842523729875   17.62747868885629   10.90509676783813
H          14.39827862605264   18.25301392200410    9.63333679081725
H          14.65363360657942   17.55374840523602   11.23512964828475
H          15.10607873815871   16.64226359562058    9.78921784916316
H          22.00408676079979   15.78663957625786    1.74042644728756
H          20.57760868364324   14.31118199494379   -2.65798355770789
H          19.04105829656943   15.19238481464157   -2.67143272069136
H          19.44026568253708   12.37571308014057   -1.54729257190174
H          18.65783975107713   12.77771164769014   -3.07838905245631
H          17.91609079765014   13.26854392407072   -1.55186552804674
H          10.92872132823513    9.45455216393115    3.92745819816201
H           8.95114696432635    9.18994394573729    5.59278793129157
H           5.64081941221174    8.52837944957162    4.00630349232177
H           6.41997454555400    8.57824562728304    5.59655950435745
H           6.27327723556004    6.13527045559046    3.75827850582932
H           5.29634262688231    6.38784179428038    5.20875275304858
H           7.04470569530943    6.16744051521038    5.34679364957471
H          12.48376494715153    7.01049163805845   -3.35749290703996
H          14.37115838874198    7.43467779906987   -5.09389241199814
H          16.08485429094766   10.65056360954699   -4.82913249222111
H          16.33518534883275    9.05247553071510   -5.54728883057597
H          17.43785019356567    9.99202957478365   -2.84934917097244
H          18.37366033745248    9.82213271670087   -4.33983210239503
H          17.69972936387470    8.39279952481835   -3.55057707043525
H           7.99830715021722    5.58507094121488   -6.21946507893115
H           9.98536232372628    6.34972499208903   -4.70409534396009
H           4.21316141344423    5.32024132413951   -3.25476012282378
H           0.06382550985622    6.08485025559837   -9.02353713461532
H          -3.67162758305745    6.71919918035774   -6.06496737982517
H          -5.32405091542070    8.15469548207512   -7.48990839384662
H           2.68579216201157    6.79608734015712   -2.37708674665582
H          -0.33749255412647    4.74610272089495    0.82248922321692
H          -0.68019424434698    3.28674493841542   -0.12232272116288
H          -2.19233915666875    5.93417168331484   -0.36305152183667
H          -2.78634280776908    4.47204428465053    0.43037317128527
H          -2.51382485046624    4.48267597640230   -1.31648677419787
H           4.48577095802569    4.20715854862588   -9.11184587145141
H           3.93940847355188    6.59933465404708  -13.29983374175704
H           3.40770268302894    8.12209259981389  -12.56885973037171
H           1.55264213574795    5.82766567919115  -13.37354193804570
H           1.76515500928128    7.34114474808106  -14.25770735345093
H           1.04101699235140    7.35360758983524  -12.64597140212485
H          -7.32716356046429   10.01697641455820   -8.82476907790355
H          -9.13036792623697   10.83239562786229   -7.14087670401832
H          -9.64114513763923   14.52216533470557   -7.05256189520404
H         -10.34885700865294   13.02112078793168   -6.43295020864915
H         -11.05134574409731   14.35714004175755   -9.09579403693930
H         -12.04759581863254   14.39117192408379   -7.63655388731738
H         -11.77306673500945   12.86542458707766   -8.48534891542020
H          -4.20530429802929   12.81510032910226  -15.45872800864539
H          -2.33809563681784   12.03613720296829  -17.09022793813754
H          -0.52739455258045   10.17986735425068  -17.30835879653234
H          -0.75420739094875    8.78911367653128  -16.23516639223630
H           0.88060666697992   11.28158428891521  -15.55823495893460
H           1.54047656758197    9.70342082714298  -15.99918529595844
H           0.63563013886413    9.89671219216810  -14.49112099719731
H          -4.73564215203961   18.21228354645062  -16.09452991588818
H          -4.67579453357049   15.63888071491890  -15.64940904584655
H          -7.22996440705140   20.02547303849239  -12.39265248707409
H          -5.02990228966240   26.49262947810590  -14.52597438520741
H          -4.78882460676324   28.82423660755013  -13.99341983376496
H          -4.85848950134912   31.15682383685983  -12.83548414410947
H          -6.56767523995293   20.82564886616791  -10.31863078351277
H         -10.39064463560407   21.88937966018664   -7.51679309811520
H         -11.32299656482222   22.75114776651108   -8.75318424241346
H          -9.20228160600148   24.01495962172820   -6.94765103154496
H         -10.95018507963089   24.20847205731995   -6.78325878601730
H         -10.11610152962042   24.86355157934010   -8.19770757668619
H          -5.35846819190932   22.66981286646916  -17.35180261829065
H          -1.50458135473574   25.11728579612874  -18.99133191300245
H          -0.72899688382234   25.35062765901755  -17.41572242353858
H          -2.81428836728712   27.22218984788406  -18.64176511295447
H          -1.07831565757142   27.53138118271687  -18.54383228223856
H          -2.04301609910452   27.43783251576284  -17.06632178376976
H          -3.23609079475559   33.74873860899380   -9.27272809301001
H          -1.29274282549162   35.17603749630953   -8.27874331298630
H          -0.92566509268793   37.31395913438630   -6.85024013693797
H          -2.36959182885467   37.97311401121781   -6.06484919186935
H          -1.41449109195438   38.69545425554208   -8.87769440976722
H          -1.25313422138542   39.71135944293717   -7.44060229307927
H          -2.85542073524587   39.34161685757482   -8.08816810754645
H          -7.60130373564075   35.76409633775485   -5.55197427181421
H          -6.32897088819216   35.42239656827541   -3.30188318172793
H          -4.31229289774613   34.06452208792901   -2.34468538674048
H          -3.36281812071509   33.13134135964678   -3.51332328692235
H          -5.91952890236969   32.16088196441466   -2.14590590072091
H          -4.27638277305509   31.64569732287810   -1.74784771237142
H          -4.97537688488931   31.23980220263995   -3.31950336380329
H         -13.79264158371567   38.35264906239745   -8.71473796222736
H         -12.48398906803046   39.50356199689539  -10.66936187326627
H         -10.07298206316537   38.53640547164511  -10.89653879296699
