272
 SCF done       -501.374393593420          0.000316371812
C          -1.59746091847344    0.66604820344326    1.21645846613714
C          -0.72416140385029    0.55567659394697    0.14887843517925
C          -0.81055484390495   -0.67317334800779   -0.48190665309975
C          -1.74301605460682   -1.53547138648348    0.08249485883414
S          -2.52955726787039   -0.78281627344285    1.44379545411412
C          -2.00689857210507   -2.83621486823703   -0.40750409579663
S          -1.12467801890575   -3.34286993035244   -1.83070839086596
C          -1.90948526695212   -4.90201674907477   -1.87210346019774
C          -2.79902418866892   -5.01864354799164   -0.81129571077475
C          -2.87292645612216   -3.84455093021595    0.00188757970201
C          -3.60201640262892   -6.20034039500686   -0.55511871626763
C          -4.64973138554279   -6.02305500974487    0.44476375377440
C          -4.69769968703076   -4.86319064115601    1.28091154883393
C          -3.80119947799821   -3.72637367897019    1.11141940189315
C          -5.61263258483015   -6.94900172758941    0.76135870706421
S          -6.57614055649984   -6.40117542838163    2.09304074790045
C          -5.66765594963293   -4.93761613621985    2.25153653189643
C          -1.64505787855101   -5.73704945997822   -2.98684121398923
C          -0.95551293157588   -5.33309535307240   -4.12151748738833
C          -0.94576195637468   -6.27424995309379   -5.14289489634229
S          -2.23660607248038   -7.36252111484223   -3.17708357643404
O          -3.40007913786898   -7.27802770420403   -1.11022766295846
O          -3.86742379756346   -2.73421310224677    1.83627290188602
C          -5.89982881836845   -8.27240414879706    0.14492135719257
C          -6.29732640075935   -8.16910966650442   -1.32910642916973
C          -5.92846590028393   -3.96413978126014    3.34168950433816
C          -6.88591653350937   -4.48467234271095    4.40315381355178
C          -1.77356179043624    1.79101416798054    2.06036549599770
C          -2.67146761105950    1.93577601597467    3.09860861700834
C          -2.56005388348806    3.17918703476000    3.71716320994122
C          -1.58965237043142    3.99815116748232    3.15493422570208
S          -0.79221359725922    3.22879729269877    1.83948440355139
S          -3.49764061387101    3.95619221572889    4.97966131401709
C          -2.62526332354146    6.79230279822495    5.14284933402863
C          -1.55816650003477    5.31064365384159    3.68057684524898
C          -1.76076859574291    7.78937865547401    5.38013507193675
C          -2.14698946130951    7.57461438143330    3.92474244998340
C          -1.42149814235379    6.54488831697645    3.13004983037859
C          -2.24763360129085    5.34783671972681    5.04199078969961
C          -2.62363219669771    8.57425657955039    2.99672403558848
C          -2.09507058803907    8.46438346543769    1.73098665674808
S          -1.08414527626662    7.03767227585785    1.49252732426851
S          -3.55023666817681   10.01301967814150    3.16549736958050
C          -3.24474326931911   10.42336003123752    1.51176098865610
C          -2.46064518648214    9.51931525376440    0.87052683448181
C          -0.97319128684204    8.60761122320692    6.17016549534863
C          -1.33317079970290    5.04611452238157    6.18180891519226
C          -0.17956507578007    9.65800023574801    5.75297987913436
C           0.52154929698198   10.24811485384438    6.81224982220662
C           0.27610581393105    9.68566520785168    8.04128560513962
S          -0.83603184845061    8.37548611590101    7.90081129467967
C           0.00744793302304    4.82941952118552    6.13380354827953
C          -0.34086381071591    4.73049937395627    8.44145469533360
S          -1.92552965943977    5.02677848738604    7.80926316970391
C          -0.11716269787365    4.55393112780088    9.90267718848661
C          -0.47632115360061    3.13412610291705   10.34668154852650
C           0.79306698683620   10.12674601977837    9.36462541839267
C          -0.10329463113907   11.21474691154428    9.96359951853866
C          -1.59769447660932   -7.43795664665932   -4.79250904032029
C           0.56102722261158    4.64662717115626    7.42369907936550
Cl          2.24101927661471    4.36564281684050    7.66845365340077
Cl          1.59094427981685   11.57881567860136    6.59688478672083
C          -9.30020704127461   -9.22205342332665   -4.30840861759952
C          -9.89771451421567  -10.18239434485558   -3.51565328091582
C         -10.20871686186460   -9.70723235381313   -2.25117367280445
C          -9.83886758191425   -8.38581077032714   -2.03555511073502
S          -9.13134022310157   -7.70696834325560   -3.47511621031156
C          -9.96205221392870   -7.73137839069383   -0.78404067191185
S         -10.66391427119193   -8.65715756625561    0.51683943533872
C         -10.41203686244459   -7.38109690265764    1.67436678109837
C          -9.84357259118217   -6.27319023138689    1.07011611217072
C          -9.56950598844610   -6.47825655416955   -0.31862595909254
C          -9.64933016930122   -4.97587486343867    1.72697454708058
C          -8.93888524205077   -3.99291238915747    0.90713129553565
C          -8.49762214505308   -4.27500896173368   -0.42687058281000
C          -8.89350590402142   -5.48782122472890   -1.13548048293827
C          -8.56137031209110   -2.74428958601409    1.33686963702460
S          -7.61331395798626   -1.93535321849613    0.13410103818400
C          -7.76918016342040   -3.24976565119605   -0.97802803705045
C         -10.72979958786202   -7.68606336209689    3.03034536027162
C         -10.16367735714527   -7.24663330175378    4.20596441091255
C         -10.63114663912413   -7.92309567154971    5.33302105340228
S         -11.88728307836511   -8.95566816297704    3.34117663111694
O         -10.03784075599186   -4.73748173118162    2.86099635651259
O          -8.67183495015041   -5.65253845606900   -2.33441305685184
C          -8.93563414803895   -2.01986091779977    2.57963890807514
C         -10.23274355228069   -1.23522558166325    2.35607819647376
C          -7.10454325300798   -3.17637354827529   -2.30558124139435
C          -5.67682135641232   -3.72347539522963   -2.22493230391191
C          -8.71047170748826   -9.39726621243300   -5.59006274588678
C          -8.21802497994243   -8.41527550255277   -6.41624434938173
C          -7.47036927307079   -8.94317047040259   -7.47215708650667
C          -7.39527854437083  -10.34845447453266   -7.46452105638696
S          -8.31710131481674  -11.01361060651716   -6.16856476481559
S          -6.43188685449960   -8.19410160127549   -8.65998942077784
C          -5.88984514555105   -9.76772394142212   -9.10806222145190
C          -6.48441985861504  -10.79832286120608   -8.42335286368338
C          -4.67040629198177  -10.53701037270159   -9.54098707088670
C          -3.71008303393365  -10.60401656005693   -8.36446425169713
C          -4.29481526967753  -11.71957630768827   -7.81740008231029
C          -5.42410908870957  -11.81833889564066   -8.80717662986975
C          -2.93941029391425   -9.89545556410627   -7.43879545946523
C          -2.95931053632938  -10.53484252713649   -6.18588691109492
S          -3.90541753773436  -12.00222851960575   -6.16215164613751
S          -2.13916265607194   -8.36976410862412   -7.34606898085892
C          -1.94800817622803   -8.55352739224887   -5.60544215562722
C          -2.39460799925035   -9.77370889947491   -5.15911604137676
C          -4.22507446346509  -10.65523910551340  -10.91814420445765
C          -5.73747537258054  -13.01213187201093   -9.57256616431143
C          -3.01425842977146  -11.07973203900711  -11.37774060678303
C          -3.01335255336093  -11.26001165148751  -12.77870381509404
C          -4.20418600429006  -10.98692824894268  -13.38619662522197
S          -5.37672769052594  -10.50384867508564  -12.20890230538438
C          -6.87546451395982  -13.29037083860964  -10.26907369952617
C          -5.52549387054835  -15.06528255257408  -10.96576715314578
S          -4.49072309335486  -14.17469845705880   -9.90239174844626
C          -5.03172535159588  -16.27030565191186  -11.68717662159039
C          -4.35273155426857  -15.87706917216569  -13.00139502685673
C          -4.56891175242299  -11.12124098501373  -14.82327775112432
C          -5.12562470813906  -12.51716854409122  -15.11397149977257
C         -11.57138299642128   -8.88828249155411    5.04649730824732
C          -6.74465714116362  -14.45875829740141  -11.05193430298315
Cl         -8.02323973286115  -15.05977505209929  -12.03543918860381
Cl         -1.62009903989700  -11.78619417020241  -13.64184593349043
C         -14.12342680468100  -18.41374409972847   13.83204183235104
C         -15.07300324002411  -19.35665364640161   13.48742818065861
C         -15.03826900012471  -20.46857854581776   14.31360582372119
C         -14.06189231734426  -20.41084953913854   15.29981977042184
S         -13.17539272168759  -18.91568347220927   15.19787579694686
C         -13.82506529845830  -21.45056788678746   16.23376393840396
S         -14.86857060316068  -22.84824301901979   16.14327673125540
C         -14.03880160684537  -23.66790302418929   17.44360534676846
C         -12.99767627178613  -22.88091870816784   17.91689824344832
C         -12.88038312133263  -21.62553819190424   17.23799110748802
C         -12.09944959779203  -23.27531177059794   18.99048613827573
C         -11.03840555602297  -22.31580041998231   19.28448015227206
C         -10.92748729941758  -21.05867653220357   18.60888217447913
C         -11.86272922062329  -20.64529208905322   17.56875520006372
C         -10.04820601851476  -22.51151175492393   20.21507237921435
S          -8.98812833100766  -21.14541580804594   20.27959392172061
C          -9.86912945251796  -20.30403235894079   19.05197782695445
C         -14.52522352662761  -24.95589459805982   17.79656025734353
C         -15.58181118894529  -25.58130670782442   17.15699074864817
C         -15.88562724054943  -26.84045534985347   17.67693631413547
S         -13.90512915503735  -25.96711789750033   19.07345557544731
O         -12.21532179939822  -24.32945967047168   19.60859264595838
O         -11.78240010458158  -19.55036548343671   17.01477013960531
C          -9.83688424852885  -23.66049139525663   21.13284938627251
C         -10.70803719484324  -23.52044160275945   22.38466525867256
C          -9.40770315024517  -18.97111050506668   18.58449799300664
C          -8.56765489851055  -19.10258124010908   17.31059369863731
C         -13.86412504133074  -17.17917962632719   13.17969518941621
C         -12.96406026816995  -16.20706566442934   13.55093051061057
C         -12.94592940546198  -15.14598387082631   12.64105261551646
C         -13.82631677277128  -15.28886603722090   11.57589205281939
S         -14.70793551433300  -16.76793859713512   11.69663333108715
S         -11.99824435447519  -13.69387837876504   12.52567626644753
C         -12.74446159265281  -13.31650648717806   10.98432374282022
C         -13.74016520533276  -14.25471730985515   10.61049745719401
C         -12.40208155295563  -12.23088406604186   10.18947167787372
C         -13.03281157712332  -12.13378289163665    8.93767887494627
C         -14.02908240627428  -13.07153174480947    8.56544312931617
C         -14.42876314655079  -14.11046737829530    9.39481707449376
C         -12.78097957321291  -11.23748340908020    7.86773893788301
C         -13.54916735811224  -11.47889121602634    6.73605833658656
S         -14.66666979463926  -12.78953510633722    6.95673931321309
S         -11.64787346728485   -9.96461835145328    7.58520657183235
C         -12.21012741814403   -9.79870872978308    5.93227761465487
C         -13.23185402622515  -10.67115283780814    5.64007224824385
C         -11.42890511166452  -11.23708228968970   10.60704007876983
C         -15.50060942862593  -15.02216671220849    9.03482440845969
C         -11.57737277268804   -9.88151104359320   10.59917326616357
C         -10.42702804717151   -9.21040881028667   11.06791780779391
C          -9.39938841335116  -10.03430223801204   11.42250885427482
S          -9.85651483874367  -11.68737810731399   11.19560125099888
C         -16.58301639597087  -15.36326334555126    9.79083584395068
C         -17.00935971040680  -16.64812832102434    7.89014476877465
S         -15.53154421420312  -15.83838640672515    7.50025420316437
C         -17.67600882616365  -17.54636210320379    6.90789797121007
C         -18.50829625774782  -16.73885906581082    5.90876957900125
C          -8.07138722392940   -9.67704847552206   11.99241669019407
C          -8.06248031976312   -9.85829536800398   13.51206215175367
C         -15.06202020437288  -27.17427548730366   18.71324671667236
C         -17.43329421151143  -16.27800348808015    9.13269160897998
Cl        -18.87400207319348  -16.87927791019461    9.85618168225099
Cl        -10.33915315904281   -7.49447146028952   11.16255025310019
H          -0.05831538047965    1.34613537285816   -0.15049899448437
H          -0.21540069394211   -0.95195975358839   -1.33426452072165
H          -0.50570637859104   -4.35856203551505   -4.20193319005644
H          -0.48628858008225   -6.11996998412585   -6.10344108072622
H          -6.69786456382715   -8.75707622688457    0.71245274047975
H          -4.99913377226535   -8.88925082741181    0.21265334220207
H          -7.08195594066766   -7.43278091565329   -1.47145725712707
H          -6.65498620311328   -9.13371723857266   -1.68017499119781
H          -5.43956424122136   -7.88316979841794   -1.93028789528413
H          -6.31252393826362   -3.03937170388969    2.90115447873178
H          -4.96632919505526   -3.70025560361092    3.79197588522400
H          -7.86342406960204   -4.68972642905692    3.97348527437536
H          -7.00646393519706   -3.74647855767830    5.19168089629176
H          -6.50269043912558   -5.40247328169882    4.84525937775294
H          -3.36916798377610    1.16831817274395    3.37811937699440
H          -3.67588266177462   11.32135495863036    1.11734479228523
H          -2.15535065461024    9.59630520495596   -0.15609435423681
H          -0.10992029722075    9.97674691686670    4.72923889815336
H           0.58670207392849    4.79898595008856    5.22916190060483
H          -0.72982785564964    5.27171638755314   10.45161191165119
H           0.93384541541077    4.75208246342775   10.12184153180868
H          -1.52233820388253    2.92692225510975   10.13377122417230
H          -0.30714382450990    3.02090170278171   11.41421949355173
H           0.13587208164453    2.40773628874607    9.81785278156637
H           1.80345889673259   10.52048914544245    9.23541486158078
H           0.83366679853676    9.27326204377538   10.04313641278514
H          -0.14370749968359   12.07647444140921    9.30216740954204
H           0.28913181522096   11.53242789179883   10.92571389236448
H          -1.11319262141690   10.83711569273879   10.10498750998120
H         -10.08694617136657  -11.18779998257903   -3.84879731778885
H         -10.67366769135478  -10.30573509868068   -1.48683482047980
H          -9.42184009218646   -6.47290681258573    4.24290618625896
H         -10.29342290070466   -7.72599420527714    6.33513343151344
H          -8.13948252241969   -1.32712908839589    2.86031979139037
H          -9.09676464036086   -2.73884091944449    3.38268853770487
H         -10.11730981263498   -0.52869195408782    1.53649699671541
H         -10.49147235381337   -0.68619732569689    3.25720683640064
H         -11.04471606330297   -1.91845754805875    2.12043901562826
H          -7.07459559876663   -2.13733168012051   -2.64024443945262
H          -7.67639738704513   -3.77008376091385   -3.01989958540166
H          -5.09759960286920   -3.16316410878405   -1.49265075568785
H          -5.18963074503256   -3.64134953482212   -3.19302692099651
H          -5.69188783834609   -4.77160839428829   -1.93448215344941
H          -8.35302155008373   -7.36694979089754   -6.22366487381646
H          -2.36464928095967  -10.06559925849353   -4.12561183366667
H          -2.16044479633004  -11.25364489698822  -10.74952065810733
H          -7.76785252107529  -12.69406460676026  -10.22495204077221
H          -5.87707117056724  -16.92911188836093  -11.89640475930865
H          -4.32036841686875  -16.80527410425446  -11.05543065881335
H          -5.06476487567316  -15.38120735920061  -13.65647113567437
H          -3.97169732133618  -16.76095677748840  -13.50612717601095
H          -3.52383520974178  -15.19913751090152  -12.80932743957911
H          -3.67912842441566  -10.94943845135649  -15.43255197525780
H          -5.31778301780413  -10.36964492812980  -15.07929901897872
H          -4.37173658422782  -13.27169540890632  -14.90332994502888
H          -5.41507474277569  -12.59569654081651  -16.15859655525048
H          -5.99785187601667  -12.71201166812514  -14.49361656898249
H         -15.75870825018976  -19.23134990086342   12.66761536839043
H         -15.69731724684048  -21.31283277755172   14.20760995097382
H         -16.11054411363930  -25.12918320160869   16.33582887973716
H         -16.67471664980069  -27.46786096253123   17.30234720664906
H          -8.78465583963743  -23.70840980015577   21.42030779994641
H         -10.11430997520986  -24.58156963730491   20.61695064788386
H         -10.49245487489229  -22.58638717653724   22.89953959194725
H         -10.51533935297773  -24.34728817191339   23.06242333277277
H         -11.75808342128377  -23.53889333988534   22.10596373692618
H          -8.81464558097965  -18.49610642506162   19.36843474115329
H         -10.27960463927987  -18.35224674172510   18.36488696270836
H          -7.71210335912941  -19.75299944554644   17.48059141901176
H          -8.20872483446639  -18.12440940075254   17.00290187130987
H          -9.17420908810044  -19.51589695035863   16.50931647656695
H         -12.35138141189950  -16.27698956908282   14.43043338713934
H         -13.71069090820668  -10.72355768498401    4.67967809538134
H         -12.47907252580566   -9.37677587371224   10.30541043941364
H         -16.78851811260600  -14.95789962061293   10.76420625777673
H         -18.32334584123872  -18.23964390883915    7.44857152133118
H         -16.92104066911701  -18.12204739434224    6.36906047054766
H         -19.27907881843006  -16.17544347500429    6.42908722754406
H         -18.98555174654626  -17.40418104608457    5.19412884983534
H         -17.87374358602959  -16.04058876325702    5.36778208006970
H          -7.85236817863171   -8.63671590481734   11.74453390415037
H          -7.30087996783158  -10.31050255020767   11.54812759072944
H          -8.81444879662669   -9.22155736893220   13.97190310380906
H          -7.08847031592786   -9.59431198889109   13.91555537806177
H          -8.27980547850325  -10.89255949635611   13.76894058158983
H         -15.07684938335994  -28.07952971400999   19.28827099376375
