122
 SCF done       -247.814317304588          0.000959911064
C           1.11720610354185    1.50564290391159   -7.98095494669459
C           1.19942225036107    0.75651581045052   -6.83616118593476
C           0.94454325922468   -0.61498852002657   -7.06946973747425
C           0.67476730471763   -0.88922350949058   -8.38254070831742
S           0.73395466054835    0.56369737523985   -9.34938186878475
C           1.52582419004672    1.35154769756369   -5.52883551562660
O           1.57163472121186    0.42574884675766   -4.55931004455995
O           1.73116468159202    2.52529627535520   -5.34144968692061
C           1.88534331363531    0.90664182117917   -3.26139075217022
C          -0.14740898080878   -5.99478245949830   -9.25757897944634
C           0.21681217912564   -6.97460537370913  -10.14667696129785
C           0.01925907095060   -8.26811267864016   -9.64484654782180
S          -0.72881145414322   -6.69116544966890   -7.77134384379213
C          -0.05221157065400   -4.57677442606799   -9.40271214478978
C          -0.12114004470452   -3.79845946036867  -10.54517925369761
C           0.13900129248973   -2.43561373191755  -10.29608614647407
C           0.38323153894898   -2.15346849157757   -8.97849263585592
S           0.30812767623312   -3.59897041569107   -8.01184733233251
C          -0.50240460849028   -4.24454463648387  -11.90102677697775
O          -1.35524305800953   -5.27836690613782  -11.87527890420806
O          -0.12896809767830   -3.71172552768149  -12.91496117474709
C          -1.79142568381541   -5.75634687023391  -13.14006931495327
C          -1.19480628195261  -11.69007025462568   -6.58113163441124
C          -1.55594995693340  -10.66815541872583   -5.73212938473798
C          -1.34276281614450   -9.40193872817346   -6.27470946965333
C          -0.81491520178031   -9.43031445225215   -7.54934399221208
S          -0.56879961535584  -11.06683709445237   -8.07814047014840
C          -1.22229033961855  -13.09856160210541   -6.35164999409400
C          -2.06165931003535  -13.85411028387477   -5.54983922792901
C          -1.69570548159406  -15.21385545886884   -5.49953061471765
C          -0.60164375363514  -15.51859492684132   -6.26624209676661
S           0.01168518290515  -14.09612037892138   -7.06172082380631
C          -3.27590275957421  -13.38688566813955   -4.85233174609778
O          -3.88854414226160  -12.38930756806036   -5.50721826100970
O          -3.69960171312426  -13.87448030022560   -3.83489974724428
C          -5.08194188678653  -11.90048190004647   -4.91300890610487
C          -0.49261933446749   -8.31058161545383   -8.36206667520681
C           0.65604733993586  -20.59712900586891   -6.09647465028331
C           1.65546825255631  -21.54044223763962   -6.12798510731065
C           1.21198816286860  -22.81687789623200   -5.76561308284994
S          -0.85849633520375  -21.32296129634412   -5.60622881962856
C           0.69221203524933  -19.19760761698492   -6.36434217754917
C           1.58029990059096  -18.40713831006746   -7.08858320426253
C           1.18841335994120  -17.05212031311222   -7.12778109298079
C           0.03431300459681  -16.78084567576958   -6.44356452348927
S          -0.61718487890171  -18.23274216300877   -5.74226704519956
C           2.80004791088710  -18.83757089680764   -7.79388670236682
O           3.13379573751626  -17.94718501741324   -8.74157244574173
O           3.45400371774657  -19.82947378088702   -7.57941134577388
C           4.31132102225865  -18.24027389467687   -9.47755363204232
C          -0.13352404013986  -22.89576127814460   -5.45179560065918
Cl          0.39325239869693   -9.67688177437656  -10.54935078320389
Cl          2.25937197199564  -24.17167817680603   -5.72048651089168
C          -0.91058977874196  -24.01856256670346   -5.06620724840942
S          -0.21279727693283  -25.59254645621328   -4.82789725486773
C          -1.75804435156218  -26.26557370653002   -4.41664030374843
C          -2.74378005070670  -25.29728197754380   -4.46838232620565
C          -2.27006680087029  -24.03828723490377   -4.81956278708210
C          -1.96474101048205  -27.64840217588641   -4.14819605202201
C          -1.07933310862389  -28.68681970396010   -3.89764384809102
C          -1.71406741810216  -29.93897055053147   -3.78773574614573
C          -3.07564147112482  -29.88735971541713   -3.92970252223800
S          -3.59961842681649  -28.25503455098454   -4.22915731088101
C           0.38356296488159  -28.61055658617344   -3.70991673632708
O           0.75979010856836  -27.45462104821546   -3.14743227897744
O           1.13649901693682  -29.51024329178473   -3.98470127543837
C           2.14754244414499  -27.24476806368384   -2.92531725349488
C          -5.31469294495927  -34.59211372001221   -3.38966636578149
C          -6.24140104328818  -35.41436283920440   -3.97862774935731
C          -6.12707454462338  -36.75136979043310   -3.57080631110039
S          -4.27563228217727  -35.50151102558932   -2.33062703917337
C          -5.09882942165889  -33.19198581414555   -3.57234112336489
C          -5.98724804111157  -32.18568502400222   -3.91554467513932
C          -5.35870604871410  -30.93602564412576   -4.08657998060036
C          -4.00744533292979  -30.96194152370600   -3.85946430768021
S          -3.48149201166324  -32.56888923225677   -3.44355309793098
C          -7.45517903890055  -32.28932077002512   -4.03424972486126
O          -7.96834147417697  -33.24477659413400   -3.24634618213846
O          -8.12550456134621  -31.56735767834128   -4.72890177094852
C          -9.37946107140700  -33.39924529555331   -3.29189307214764
C          -3.45552620753796  -39.85962370874212   -0.67963242349101
C          -4.53410004463825  -40.39631048347786   -1.31039403744730
C          -5.24046675804464  -39.45707007844509   -2.08184854707670
C          -4.68981779128036  -38.19908573132547   -2.03436851506083
S          -3.27542847799851  -38.18738903749922   -1.01357380617877
C          -5.10798105852225  -36.98998779751860   -2.66928659674560
Cl         -7.18746633282821  -37.95040567968937   -4.19030629746450
H           1.26800659750858    2.56318700073561   -8.06855757626653
H           0.96212817890539   -1.36215245700457   -6.29749122375181
H           1.91693980165088    0.03453927635522   -2.61373938429994
H           1.12173597247177    1.60970576941675   -2.92246590891643
H           2.85092270336809    1.41628988756891   -3.26883260176130
H           0.63507593784918   -6.77870345126567  -11.11548933410219
H           0.13103128539631   -1.69254381088141  -11.07330317285642
H          -2.37928808026780   -6.64800611297433  -12.93905560032259
H          -0.93419547409437   -5.99328358710879  -13.77359327686148
H          -2.39909589426736   -5.00091303363651  -13.64225116413742
H          -1.93210930276917  -10.83603544792037   -4.73999110930348
H          -1.55693271280801   -8.48095069079313   -5.76177757998022
H          -2.23652483002325  -15.94066706136133   -4.92017014910234
H          -5.43961404652460  -11.10667617608974   -5.56335823513708
H          -4.87846461917417  -11.51531678528774   -3.91146585252655
H          -5.82273132126999  -12.69889402511683   -4.83583112106860
H           2.66948152693297  -21.31736425910033   -6.40053617360103
H           1.75481985156032  -16.29622807131924   -7.64085248833686
H           4.40106350118640  -17.45890113355178  -10.22762721179575
H           4.23010208576692  -19.22093542441778   -9.95079266432209
H           5.18135391329782  -18.24100763643589   -8.81746401032574
H          -3.77469727091528  -25.51110921609106   -4.24769670695130
H          -2.88442699996700  -23.15908965980073   -4.89870465139680
H          -1.17009339667710  -30.84778470966770   -3.60085461259140
H           2.28819369778618  -27.00718291620722   -1.87137898291452
H           2.46939514753898  -26.40520465702598   -3.54233113938515
H           2.70645097152769  -28.14370261801986   -3.19066363045841
H          -6.96600357457205  -35.08389683438935   -4.69833553083148
H          -5.90010647630339  -30.04726446872931   -4.35755958540488
H          -9.60196502805460  -34.30779062117855   -2.73836305095815
H          -9.72005442935346  -33.48241776380817   -4.32610544492777
H          -9.87004137801942  -32.54003142997441   -2.83016915842233
H          -2.75060107952919  -40.34630030665563   -0.03550796275362
H          -4.81791130563838  -41.43011444358572   -1.22826609963665
H          -6.12086520015558  -39.70100531664896   -2.64459880509833
