407
 SCF done       -622.555441648457          0.000941221772
C           2.33403131315365   -5.56738247917663    6.27329455397749
C           1.47864222944958   -6.65500107278861    6.16156564723748
C           1.59860310202706   -7.26449701397506    4.91597272275082
C           2.54197453516497   -6.69252600356671    4.07586081186577
S           3.33049904314060   -5.35999229994054    4.86731577194543
C           2.72287467337627   -7.07849496998952    2.72651241941502
S           1.52641908046387   -8.14909642893246    2.05055223634705
C           2.24235742874021   -8.09426168444999    0.45923682639859
C           3.41713299208284   -7.34697738355012    0.47958220488016
C           3.66005307231881   -6.74050604354791    1.75579336744199
C           4.35885485762777   -7.18002202468516   -0.62071087622327
C           5.48639159789201   -6.25530739519672   -0.36339930393286
C           5.68204800893583   -5.62544317581570    0.86940347348066
C           4.75522279808047   -5.82800646594374    1.99705991050203
C           1.45204006537037   -8.66216065899286   -0.57768524357287
C           1.65964597080318   -8.83581897369633   -1.92872019463621
C           0.53197902287144   -9.26982171924395   -2.63984843558773
S          -0.18637873670320   -9.11207170736332   -0.16202981160392
O           4.28562760365395   -7.77377269427395   -1.68822257831982
O           4.91080798199048   -5.22551658844655    3.05633483265317
C           2.39809959960130   -4.61104442761948    7.33679525528840
C           2.29763260072262   -4.79837895197999    8.69784172008385
C           2.28657927543708   -3.58990313869550    9.39615725747005
C           2.37841116719086   -2.48301471251267    8.57506123017250
S           2.51666982961439   -2.90987163742768    6.91802560834081
C           2.18238464128113   -3.16628900337227   10.83941524701725
C           2.17241151077501   -1.65083823907887   10.69345816754858
C           2.28082417446388   -1.27365051684823    9.33635254296136
C           2.02359936307125   -0.70332528144847   11.68081239338495
C           1.97867403715264    0.62830317542800   11.28337527538146
C           2.07686426500304    1.00483253779491    9.92572761443136
C           2.23111164848494    0.05828756252274    8.93855952235695
C           1.81211304783413    1.83766337119936   12.03608856318639
C           1.76734927191979    2.93572656765606   11.20564026552155
C           1.92787131769353    2.51155573937293    9.76697740663004
S           1.65413282368283    2.26988771454363   13.69342347433491
C           1.53661140376281    3.93658216840107   13.24779645581654
C           1.61199682636959    4.14520527285962   11.90327006448428
C          -0.57514758452753   -9.43485274075980   -1.82436540589049
C           3.14981454934748    3.20780155468473    9.20518352196168
C           0.69004283781319    2.75238192153930    8.92278637645811
C           0.78451450230134    2.78409118617451    7.53686987751876
C          -0.34657216386671    2.94250128875980    6.75885310513631
C          -1.60154186228699    3.06984616033313    7.33995492765894
C          -1.69222732042992    3.02903539514306    8.72437968276409
C          -0.56353494346624    2.86940322508997    9.50704185119514
C           4.39222846151466    2.59176449452126    9.17205606874856
C           5.50075474909048    3.27523965111601    8.70549631706775
C           5.40080492737858    4.58990053872327    8.27258768191810
C           4.15638760474489    5.20595857332509    8.31710027277314
C           3.04640305020738    4.52752517766548    8.78067154356677
C          -2.83417347553027    3.19363589424682    6.49018245123351
C          -3.40233167053280    1.80970763208346    6.16902320368134
C           6.59670294112481    5.31402153078104    7.72404469290772
C           6.69919010334591    5.10728100117040    6.21148951576171
C           3.39365952473866   -3.70932017902768   11.57114423216825
C           0.88180638521185   -3.57374816661935   11.50320506255708
C           0.78157571639575   -3.57994688669963   12.88972025653920
C          -0.42004173787434   -3.87034856772061   13.50477542572450
C          -1.55365361749186   -4.15705829773467   12.75483160494129
C          -1.44673405487438   -4.16612663188499   11.37213752434641
C          -0.24560698243634   -3.87285967747206   10.75208603714428
C           4.53900311986127   -2.94796753108213   11.75124513154516
C           5.64762043602137   -3.48805841492685   12.37806186499843
C           5.64539866954848   -4.80024983001542   12.82956111722404
C           4.50041242774009   -5.56269107113728   12.63531991114137
C           3.39104351324921   -5.02810713991167   12.01032651219717
C           6.83077074697062   -5.36856132398664   13.55548997178297
C           6.68505857940117   -5.15477971187648   15.06356535311345
C          -2.86585690063417   -4.40715381114604   13.43648558389665
C          -3.54588827039209   -3.09484304881670   13.82837204830368
C           0.44424491922483   -7.05871976595104    7.16796455596442
C          -0.70821831709339   -6.05340919380585    7.19450945787025
C           6.38943607730769   -6.01650755820630   -1.39802068239255
C           7.46508500709727   -5.16989827250949   -1.21628229855616
C           7.65777282786845   -4.54645726686701    0.00928909503928
C           6.77131392929935   -4.77348257658665    1.04308111081956
C           0.53682132295781   -9.54199802045762   -4.11371688497705
C           1.79641771017123  -10.27995418220620   -4.56227733489893
C         -12.87115130075881   -6.83511869349842   -0.05735548641529
C         -13.77385776754880   -6.82841865781421    1.00309826797631
C         -14.50707192639677   -5.64701043864759    1.03784684050023
C         -14.21537728224164   -4.74503692335549    0.02610893362671
S         -13.03917077327481   -5.41792752693476   -1.06219052211884
C         -14.65956065263159   -3.40294004269263    0.02665965600433
S         -15.40383985543800   -2.82909153135677    1.49431623633992
C         -15.42843337018897   -1.17246947537041    0.94079081598133
C         -14.98148604227969   -1.09371065287065   -0.37421990067264
C         -14.52102212288206   -2.35381213906678   -0.87627905754127
C         -14.98558525405774    0.09734936372623   -1.21474139071728
C         -14.43986467424782   -0.08591170589695   -2.57940125770981
C         -13.94370654171938   -1.31052339238602   -3.03967937130472
C         -13.93385890971515   -2.51338741578273   -2.18712513973675
C         -15.70543697852916   -0.20896383161717    1.95033265234633
C         -15.58356269348790    1.16290158787635    1.99666980736028
C         -15.65955026371715    1.71021657520888    3.28845112213601
S         -16.01827721862681   -0.83273826734096    3.55191397328963
O         -15.43094529847221    1.18217924041591   -0.86602087054686
O         -13.44957165061091   -3.57058735636882   -2.58398243590965
C         -11.80335006445324   -7.73710301137343   -0.32597568210945
C         -11.20809040047310   -8.65223248363285    0.52584067582483
C         -10.02413477729568   -9.16474457681105    0.00739591370271
C          -9.71970758685057   -8.68722638056718   -1.25522890434076
S         -10.90346764392277   -7.58031310398007   -1.82833389051705
C          -8.92989830982292  -10.07454605036479    0.50559788009240
C          -7.88852494328579   -9.87884171893338   -0.58452531436602
C          -8.41643729897160   -9.12019281195111   -1.65699679864222
C          -6.56761294733431  -10.25819855622555   -0.56925757881642
C          -5.79000524287183   -9.88996566929872   -1.66329208715215
C          -6.34482815364627   -9.23630827038821   -2.78752095225517
C          -7.65946428341890   -8.83105754417615   -2.78969329004515
C          -4.37674990093533   -9.93807600575195   -1.86947072541416
C          -4.03024626054012   -9.36042721961983   -3.07723107299429
C          -5.27451417260408   -8.96459940824578   -3.83534932843044
S          -3.00619635236730  -10.31906064870037   -0.91004937753519
C          -1.94759884203685   -9.65984885356955   -2.14487860968317
C          -2.65293160245866   -9.22224499839441   -3.24961936453545
C         -15.85441268979802    0.74863123062712    4.26101692528449
C          -5.32385099883421   -7.50426783936264   -4.23095197753527
C          -5.37340885514847   -9.88038228184570   -5.04267480970754
C          -6.23090112822563  -10.96967960231523   -5.07682564313904
C          -6.25472650957309  -11.80756763111940   -6.17778555618052
C          -5.42028669328359  -11.58627998104855   -7.26397385728184
C          -4.55907240570932  -10.49652707757377   -7.22246879162457
C          -4.53209268601922   -9.65693152505350   -6.12670499183621
C          -4.62135113031615   -6.54468042651928   -3.51551569266230
C          -4.71599892878607   -5.20759968002223   -3.85481109765935
C          -5.52346760918399   -4.79251634375258   -4.90482638874626
C          -6.23484668789374   -5.75480449981097   -5.60956092644775
C          -6.14036155658944   -7.09266590051248   -5.27718275871517
C          -5.48063484499137  -12.47100813999352   -8.47588287047635
C          -6.48688070953175  -11.92158045058908   -9.48912930829592
C          -5.59053167535898   -3.34552938899789   -5.30074334741854
C          -4.53486696728184   -3.03290348590035   -6.36320111171173
C          -9.50248386635326  -11.48226684966577    0.52979269128883
C          -8.36076046213245   -9.68653564651077    1.85440448288894
C          -8.45936291788674   -8.38728803296710    2.33295983788585
C          -7.91608155300636   -8.04585475312295    3.55811585643721
C          -7.24774923078775   -8.98518263352542    4.33211622335622
C          -7.13562603129155  -10.27953230005235    3.84106017406120
C          -7.68132212990783  -10.62691346787935    2.61976185313788
C          -9.24196560191973  -12.40439319190985   -0.47272896035161
C          -9.82449300056220  -13.65892246859595   -0.43909245600072
C         -10.68621389554073  -14.02095011875688    0.58641607693132
C         -10.94818212011383  -13.09183200443009    1.58562472861569
C         -10.36858806688173  -11.83884521320921    1.55712280791594
C         -11.28109881708056  -15.39865432350837    0.64230588372313
C         -10.36476595191395  -16.34541870762444    1.42016418639296
C          -6.69758898095154   -8.62212404683546    5.68216406419825
C          -7.75979938744594   -8.80685743613236    6.76867802957528
C         -13.96010143259316   -7.88868333223551    2.04472843729880
C         -13.14968927443079   -7.56545412214866    3.30313950873546
C         -14.41956962666894    1.01726353298355   -3.43109001095426
C         -13.91830108671046    0.91205455749138   -4.71349892298225
C         -13.42445455637734   -0.30360849139995   -5.16716511158042
C         -13.43743422115342   -1.40506769422367   -4.33462124326808
C         -15.57170114193570    3.18160195632151    3.55196743930546
C         -16.70171315670198    3.93037390379319    2.84460169779121
C         -10.25806935523724   -6.16222791001106   12.42341965578931
C          -9.94195450586247   -7.43900841368421   11.98898643929399
C          -8.65854499912154   -7.83655479602076   12.39283340979057
C          -7.98332656778099   -6.90195133195232   13.13672472262268
S          -8.97151725265535   -5.48751294782408   13.38108109017004
C          -6.67875263719205   -6.95915230405223   13.70924969383460
S          -6.43664257243469   -6.25496695936882   15.28140662717456
C          -4.74012823116925   -6.66852678097382   15.28980147681832
C          -4.39243773252433   -7.29380153509278   14.09956231697047
C          -5.49204634815167   -7.45633320461963   13.19979382527034
C          -3.03971398804084   -7.66773080631041   13.73158284923257
C          -2.83088835941444   -7.93368973372183   12.29395648820735
C          -3.90140406226927   -8.07554757465419   11.40516324845973
C          -5.31336657087980   -7.95528366513122   11.83824449236194
C          -3.97883975854008   -6.26029600760830   16.41723675742622
C          -4.46745369363222   -5.46566840488514   17.43718021054609
C          -3.52739268891817   -5.17207041242449   18.43400272508420
S          -2.30726743582917   -6.66581503943131   16.70818351136898
O          -2.11158521847585   -7.73469004111161   14.52764790759954
O          -6.22948289105464   -8.21685259076292   11.07494222098788
C         -11.37952405761437   -5.33569293709877   12.10283661448458
C         -12.66072810059926   -5.68911846227722   11.73313850820565
C         -13.41757138698587   -4.58749639215661   11.33677049595878
C         -12.73172477867030   -3.38828088639381   11.41790063036612
S         -11.13465121040161   -3.59662856215275   12.01149184502041
C         -14.80032664191082   -4.35962317902089   10.77980828234573
C         -14.69236880828120   -2.90114692941289   10.36123886821689
C         -13.47814572939764   -2.32984559764857   10.80616652722831
C         -15.51699883705036   -2.22567484704742    9.49407070703335
C         -15.08833660116755   -0.97480409458005    9.06459276617311
C         -13.93058656899225   -0.35516997358274    9.58729848575175
C         -13.11690188778246   -1.02511257868943   10.47245428678097
C         -15.48885902881329   -0.21091429704353    7.92711983239835
C         -14.63341432216952    0.85390247283150    7.71354389298719
C         -13.66609151607626    0.96582597150190    8.87210197496451
S         -16.51026089090313   -0.51724286618135    6.58459838218845
C         -15.72288462026373    0.76851561761820    5.68563373304337
C         -14.78504765495637    1.43479145376946    6.45178302423376
C          -2.32426592052992   -5.76610404890296   18.16313375318066
C         -12.20693478339014    1.03491587770715    8.47514436532298
C         -14.08058218797845    2.17900743461006    9.68611774904325
C         -14.73265694498570    2.06711251064446   10.90458499524870
C         -15.12160466979059    3.20080264828146   11.59623170709024
C         -14.87728108940920    4.46847575613138   11.08785294459623
C         -14.22791429252832    4.57463815481600    9.86383564171440
C         -13.83779917484892    3.44677586413673    9.16978352490449
C         -11.75502911877818    0.46507144752629    7.29314241806403
C         -10.40916477466923    0.48312342462366    6.97403019409729
C          -9.47851557218677    1.05363497488299    7.83139906710674
C          -9.93381199987625    1.61098579914381    9.01950975676865
C         -11.27758139679350    1.60071304196129    9.34009009479027
C         -15.25702850704763    5.69641169629650   11.86429995587767
C         -14.10809294367427    6.12605449305201   12.77895133987316
C          -8.02058105135739    1.10550484478748    7.47396340129668
C          -7.67361170225005    2.44165235383526    6.81440270732379
C         -15.78600927192394   -4.59992528031521   11.90713020539599
C         -15.13405189957611   -5.16055152181146    9.53896359746315
C         -14.13952994426915   -5.54237470486431    8.64955331565155
C         -14.46299552902314   -6.15799964157923    7.45420722339258
C         -15.78676258603340   -6.39913306026348    7.11207049560179
C         -16.77833644852592   -6.02301133411605    8.00857172317735
C         -16.45961102725830   -5.40996655052561    9.20491007404151
C         -16.36060532651715   -3.55473308359953   12.61468028686880
C         -17.22145355991769   -3.81191846149858   13.66665250348751
C         -17.52282874243280   -5.11328266364023   14.04270135406388
C         -16.94027990101682   -6.15671824141556   13.33384537174532
C         -16.08018953783346   -5.90534104603791   12.28316260141986
C         -18.49477960076931   -5.38722147091167   15.15404775698178
C         -19.92139203831960   -5.47003052059509   14.60713731997581
C         -16.14994615088961   -6.98654528856709    5.77876121659633
C         -16.40441005250949   -5.87140966151253    4.76159372730925
C         -10.77257142852829   -8.30018832146297   11.08719398934484
C         -10.75343510759860   -7.76655866847514    9.65431413981804
C          -1.52546189005352   -8.04813369724869   11.82167455521274
C          -1.28232287586115   -8.30956593618025   10.48759072385632
C          -2.34389368517636   -8.47205368480227    9.60803294670201
C          -3.64207145066225   -8.35376081101296   10.06488211059472
C          -3.82940505893604   -4.36050485711746   19.65447659653348
C          -4.57459934941882   -5.20241784331600   20.69131726682335
H           0.99919851070279   -8.10605162176623    4.61141290745048
H           2.60987752666590   -8.63255087170828   -2.38368931572579
H           2.25538675449623   -5.76670988770710    9.16036547531093
H           1.93226097851076   -0.97284922731120   12.72181125195674
H           2.30098336558819    0.32629080626376    7.89547555359454
H           1.41626482382237    4.66726011047169   14.02307407081711
H           1.55730512109967    5.11722210019351   11.44776765811712
H           1.75149857934364    2.69474060687834    7.06312010218439
H          -0.25263312818512    2.96867860148905    5.68223948218639
H          -2.65906993401066    3.12374141629580    9.19864891407278
H          -0.66122013956963    2.83677493380182   10.58236649641868
H           4.49629767838103    1.57147511492907    9.51086736760633
H           6.46036102136623    2.77818082930889    8.68251717626629
H           4.05698854940335    6.23109274690629    7.98858085684464
H           2.08562621732864    5.02177697995466    8.80627306412193
H          -2.59087249888613    3.70728427212104    5.55773447035827
H          -3.59035722029095    3.78064932902915    7.01612142181313
H          -2.65927270264602    1.20776791955111    5.65084113673575
H          -4.28203192135466    1.89506245503804    5.53443606248459
H          -3.68075557533892    1.29250994341891    7.08470341332662
H           7.50587848256137    4.94160853540087    8.20048968982369
H           6.51248093762373    6.38197315731872    7.93617967894921
H           6.79486641979160    4.04862566615928    5.98078016898249
H           7.56556844339670    5.63006321246221    5.81264211704203
H           5.80694395528389    5.48518442652699    5.71706592232800
H           1.65310391785433   -3.36392269093927   13.49074358570753
H          -0.48188292233363   -3.87617619316028   14.58370491615050
H          -2.31402880049818   -4.40018479740961   10.77019345794283
H          -0.19026519547869   -3.87293532860184    9.67367963750275
H           4.56624906431180   -1.92587028283849   11.40278561377854
H           6.53013961918744   -2.87898103621270   12.51443518817887
H           4.47925206705019   -6.58856233977317   12.97542517084363
H           2.50738781854494   -5.63436332015285   11.87074059658005
H           7.74543216938638   -4.88284902353898   13.20961575112928
H           6.91293966671677   -6.43798396950835   13.35028675438456
H           6.61498993757324   -4.09291789915496   15.28923638901605
H           7.54159422085950   -5.56692911577907   15.59217331230353
H           5.78350054400323   -5.64167017712326   15.42873993034874
H          -2.69199002492743   -4.99777323373226   14.33694415512185
H          -3.52648987428630   -4.96863239021651   12.77147741161813
H          -2.91054840908688   -2.52654417570153   14.50341144072723
H          -4.49226382663292   -3.29361031537879   14.32713107265789
H          -3.73774926052643   -2.48919003211464   12.94555766148854
H           0.88671842789388   -7.12652189728281    8.16157838184554
H           0.06173009506835   -8.04553994962404    6.90024488691028
H          -0.33346698900789   -5.05734689982931    7.41604515207040
H          -1.43516644259718   -6.32544779011131    7.95632245415868
H          -1.20541800632465   -6.02447893178125    6.22758835031631
H           6.22206849066178   -6.51254062795180   -2.34266327072292
H           8.15586298414382   -4.99383969937809   -2.02754850753330
H           8.49908945554314   -3.88509879864114    0.15421911350660
H           6.89759401274890   -4.30091411238005    2.00587434417626
H           0.46548084581903   -8.59280823910776   -4.65447769170003
H          -0.34072770549611  -10.14029155893270   -4.36739064875391
H           2.68289700038206   -9.67161795209696   -4.40857022506334
H           1.72587386471713  -10.52264325160739   -5.62005703504851
H           1.91171326755882  -11.20512378215861   -4.00242607857728
H         -15.23367381015991   -5.42838241374806    1.80230172109443
H         -15.41046039691365    1.75080150146461    1.11466052248524
H         -11.57444502465693   -8.88876447961550    1.50408993034611
H          -6.13241836436064  -10.77838632943436    0.27028251694207
H          -8.08240068968476   -8.27194913732573   -3.61024910022703
H          -2.18629910392123   -8.74777910495508   -4.09255841044062
H          -6.88738954406581  -11.16616413500143   -4.24202419941468
H          -6.93208883433526  -12.64987857219161   -6.18910754905091
H          -3.89917867394513  -10.30680541597623   -8.05733476874982
H          -3.85921734296573   -8.81172091304792   -6.11233552557999
H          -3.99575987175122   -6.84195852964928   -2.68641846156820
H          -4.15768718850358   -4.47491045075706   -3.28922146598853
H          -6.87515675188881   -5.45268333432549   -6.42628553609324
H          -6.70086113104681   -7.82579619089356   -5.83962517519145
H          -5.77875801756869  -13.47995345274294   -8.18366446058221
H          -4.49495315738001  -12.52751610758530   -8.94250662206677
H          -7.47903216297373  -11.86997108881211   -9.04619475496679
H          -6.53111412995703  -12.56082751074571  -10.36790871437896
H          -6.19996491527888  -10.91996823466405   -9.80175768884928
H          -5.41960999198204   -2.71410740491480   -4.42656746635536
H          -6.58105588804451   -3.11668697865829   -5.69912911845860
H          -3.53895738192437   -3.24340109967837   -5.97947593806039
H          -4.58188638750100   -1.98524090675504   -6.65147879834280
H          -4.69631777247404   -3.64464307405910   -7.24812548985336
H          -8.96484282688234   -7.63459008913586    1.74531654760615
H          -8.01000361869752   -7.03029904343824    3.91659649562978
H          -6.61254800289514  -11.02637018032498    4.42174032196536
H          -7.58897015097696  -11.64241184213546    2.26151137677174
H          -8.57886034739680  -12.14602612037957   -1.28508866664455
H          -9.60733838717994  -14.36623315433331   -1.22710831692398
H         -11.61788076176579  -13.35230422420476    2.39325425489813
H         -10.58022486696283  -11.13055664297597    2.34505659510583
H         -11.41982772601467  -15.78346050275826   -0.37008849748108
H         -12.25721573990450  -15.36113313026693    1.13037974857570
H          -9.38979553454371  -16.40529492304655    0.94157448179211
H         -10.79397988567026  -17.34389679669402    1.46105856080439
H         -10.22452672174469  -15.98512411445106    2.43692138331880
H          -6.36607938139257   -7.58143690568346    5.67876389166190
H          -5.83709802798024   -9.25425426307734    5.91114443918333
H          -8.62010911621341   -8.17166839251431    6.56759397536782
H          -7.35701630052052   -8.54830607559258    7.74555162305651
H          -8.09690285773793   -9.84105729001253    6.79506937014887
H         -13.67926514167456   -8.86402060003715    1.64643881305115
H         -15.01851494365827   -7.93045129353275    2.31203430081204
H         -12.09455212151192   -7.44291368332409    3.06883851339885
H         -13.25157234558571   -8.36380651662502    4.03557347734952
H         -13.50343917603741   -6.63710831784981    3.74461459449420
H         -14.80717034335750    1.95361933201376   -3.05757269185351
H         -13.91106458702311    1.77542353392787   -5.36221822476474
H         -13.03144102528939   -0.38839276826085   -6.16944228136641
H         -13.05831838278913   -2.36174343634657   -4.66227149414055
H         -14.61001961302127    3.55618682270038    3.19094570925084
H         -15.63296977057879    3.36593944111536    4.62520699919616
H         -16.65333423237463    3.77326627928515    1.77051808892483
H         -16.62733704443582    4.99673594221898    3.04416093517275
H         -17.66726067409250    3.57796077175711    3.20063748749593
H          -8.23408583470619   -8.78927538946035   12.13784892688689
H          -5.47879636436022   -5.09673378247330   17.44715294727413
H         -13.02528592405845   -6.69827341586981   11.74464596572135
H         -16.40889210621840   -2.67606047716000    9.08615085997473
H         -12.19029856684605   -0.59957237485820   10.82726289628378
H         -14.17156990480452    2.22757722976688    6.06382949211693
H          -1.43013146001778   -5.70344245902792   18.75295711938283
H         -14.93582697957074    1.09099353931132   11.32003554004100
H         -15.62576667560760    3.09595765717353   12.54660075319067
H         -14.02910328994778    5.55282012685337    9.44913081659664
H         -13.32991913153459    3.54597227617666    8.22136953509864
H         -12.45774929969511    0.00049292459588    6.61654680206618
H         -10.07744199911717    0.03800506717553    6.04651100395784
H          -9.22582333940429    2.05326419657230    9.70623356214522
H         -11.60949697801541    2.03834441571216   10.27082984700796
H         -16.14234184884169    5.49292236893804   12.47011000323709
H         -15.49310527403946    6.51114109038741   11.17669801299686
H         -13.86595101418421    5.33068481430573   13.48036655832720
H         -14.38116760110105    7.01530943546059   13.34232099478123
H         -13.21922970784607    6.34572601837558   12.19163108347567
H          -7.77717269228513    0.29137326321566    6.78853120592115
H          -7.41636289406491    0.98410090093061    8.37563749198811
H          -8.24590637228564    2.57122583531236    5.89837716465294
H          -6.61423667841588    2.48187601203067    6.57216468760371
H          -7.90846433325084    3.26657285962615    7.48347984769157
H         -13.10424420213568   -5.34399130174645    8.88639280726584
H         -13.67387750150195   -6.44494214553469    6.77330683197358
H         -17.81533504567110   -6.20369206423957    7.76282173898024
H         -17.24801223679095   -5.11725148918995    9.88352696951393
H         -16.13784009217322   -2.53345791413174   12.34232016845395
H         -17.66325519751495   -2.98576404266830   14.20576472671332
H         -17.16055506673907   -7.17791829982953   13.61141522890701
H         -15.63965691511435   -6.72810355320233   11.73864779696892
H         -18.44064443273578   -4.59010188216236   15.89836031312285
H         -18.24187681304395   -6.32986689685919   15.64367400350860
H         -20.19608103682465   -4.53432929470955   14.12517502949199
H         -20.62716956147928   -5.66758247584325   15.41064153282217
H         -19.99874303101068   -6.26831159105974   13.87220075594083
H         -17.05153377725938   -7.59533159388631    5.87517300168144
H         -15.34178112660940   -7.62624725484186    5.42041422119690
H         -17.21411275795584   -5.22813717346863    5.09809503691263
H         -16.67659894414090   -6.29249473875746    3.79614455986980
H         -15.51558691085837   -5.25579802616217    4.63947568537152
H         -11.79956624858153   -8.36283445697204   11.44825654186350
H         -10.35497627112571   -9.30828315959442   11.09703645581899
H         -11.16497338470806   -6.76110657231855    9.61596676077257
H         -11.34325422030709   -8.40783594120555    9.00372035969084
H          -9.73160124753875   -7.73740209223883    9.28410978049810
H          -0.71700846443225   -7.92551149879944   12.52667862347653
H          -0.26716252652212   -8.39540602086011   10.13053198604076
H          -2.15734240706233   -8.69369383179142    8.56782694978327
H          -4.48327924121830   -8.47304007943596    9.39797803185526
H          -4.44458946288409   -3.50213429168776   19.37607467802553
H          -2.89796667784477   -3.99049559782132   20.08640417236844
H          -5.50933404387150   -5.57392820796690   20.27786343671353
H          -4.79696010284582   -4.60737149031626   21.57379925188260
H          -3.96915795425042   -6.05500504764423   20.99051635876488
