254
 SCF done       -435.104484330190          0.000528694124
C          -1.60069691941347    7.17370829433140    4.61520600120302
C          -2.31960283976786    6.13670930078368    5.23646746789364
C          -1.65779750973904    4.94787114433107    5.62350529125286
C          -0.30002543885733    4.72493957225419    5.41410412792199
C           0.42756885263490    5.77698427902751    4.82813356990737
C          -0.23635514428690    6.96507764252831    4.43896936195628
C          -3.70496910362204    6.09632934383048    5.57228379508912
C          -4.07208886539127    4.93603780636699    6.15184238046059
S          -2.77073568080819    3.81420038255911    6.33996480336341
C           1.81851000712813    5.83508550762738    4.55630156661265
C           2.20984969860918    6.98764963942016    3.94426932795912
S           0.86721719657714    8.08529733566193    3.68674441002171
C          -2.22542804554057    8.40272532827455    4.16434295914747
C           0.34091765560062    3.46887280616044    5.74930323022143
C          -1.72968575083842    9.67182287438271    4.25489246301120
C          -2.58052815947468   10.63204318905688    3.66753086927659
C          -3.71351518264072   10.11806927031962    3.10780687464126
S          -3.75323532151778    8.40305523617100    3.32740159371365
C           1.24343885681132    2.76502929034802    5.00414556895697
C           1.65343672581971    1.57098166851238    5.63467368158973
C           1.09015047812879    1.35636234079040    6.85872035451171
S           0.00570365172445    2.64686256233717    7.24703412539520
C          -4.83786022243545   10.84162901787709    2.45298721106978
C          -5.93545460530703   11.17975617496095    3.46499050660855
C           1.25456701820861    0.18951336905045    7.76836461467772
C           0.14299605475366   -0.83821433976202    7.54199129881270
C           3.51956633422846    7.36442000421918    3.52859850101023
S           4.89942658404945    6.37144435670932    3.90024648494214
C           5.96989199574027    7.48142348246794    3.09636690919391
C           5.27182127690446    8.53946551528723    2.57381655428699
C           3.89596467348221    8.48114899103457    2.82455727836350
C           7.39501245755521    7.23706374286384    2.99848124171578
C           8.17053226343852    6.81734245705608    4.09241726836610
C           9.55893979577780    6.60877712327329    3.93516175997445
C          10.22831425400453    6.77186856738986    2.72407559800536
C           9.45549494143844    7.21193710631118    1.63466684947581
C           8.07009813771792    7.43301959420871    1.79594672982310
C           9.88352894370293    7.51704504943073    0.30874463487741
C           8.88646124406504    7.91307970570202   -0.51193090001083
S           7.33948541639928    7.94716778650341    0.29932002976805
C           8.96706768401740    8.27635560898961   -1.95372851616450
C           8.32862803809056    7.19808432181585   -2.83136865559042
C           7.75418090815885    6.59109669333649    5.43725094114035
C           8.75281086511894    6.20682897736262    6.26148423917640
S          10.28733571606552    6.10210722213483    5.43456583875695
C           8.68845425535444    5.92383747748960    7.72185413857502
C           9.44769608786415    6.98214963511210    8.52424567559105
C          11.64726554444853    6.51757896834763    2.58855176644976
S          12.75677823606628    7.02281316988579    3.82655980114445
C          14.11146723089684    6.40646020811925    2.92642160639079
C          13.70101852475103    5.84350443353037    1.74384418415099
C          12.31388896571491    5.90611902227429    1.55681401711380
Cl         -2.20564206139388   12.31264971024142    3.65598319176790
Cl          2.77766570317891    0.48445342973820    4.91046244093346
C          17.79329864740123    7.37827687124359    6.15657935103378
C          17.14083144567224    7.02103403413373    4.96028837868127
C          17.89170867146082    6.59744390540751    3.83670110836756
C          19.28063037407985    6.50916247908871    3.83420395178819
C          19.93529356569041    6.88395156201458    5.02520315673356
C          19.18090168372852    7.29216802780241    6.15247828509012
C          15.74880469786259    6.96777503384120    4.71296730816903
C          15.42466206794183    6.53629212732115    3.46182840664478
S          16.84512904864420    6.15933455687068    2.51022906651902
C          21.32811761981772    6.96245076254037    5.27069055445711
C          21.64363796685310    7.38581863413163    6.52772087430000
S          20.21665512051335    7.72006815176752    7.48692585168797
C          17.06854864512802    7.81428129131203    7.33330120848708
C          19.99778204840011    6.03671457880260    2.66736962636170
C          17.33422796379325    7.51831908306835    8.63987423832961
C          16.42618104192116    8.12735865760057    9.53250814242429
C          15.47863096605257    8.90522437933309    8.93420937767552
S          15.69853677541109    8.88512265247876    7.21911388678403
C          19.70893109584983    6.27167761035174    1.35302275656311
C          20.58431676748690    5.60049745017704    0.47339377035484
C          21.54166780569587    4.84899688771778    1.08977606047236
S          21.36281796623384    4.96126431796212    2.80597465586148
C          14.33694028521668    9.63805566169927    9.54709783485020
C          13.01525409588816    8.91508075735069    9.27602839882827
C          22.58874265503959    3.98673571052616    0.47615198241948
C          22.10817777953404    2.53839242510182    0.35600975054196
C          22.93872759230057    7.55083537735920    7.09464619606227
S          24.36862105686940    7.27918613389413    6.14353573959583
C          25.39846467767241    7.62894137911764    7.50260889724777
C          24.64701066198623    7.94144979397841    8.60829718474286
C          23.26729048165429    7.89396267997916    8.38313875852044
C          26.84125604336824    7.62079406600313    7.38884564341583
C          27.54036556956853    6.66559630391874    6.62753035988372
C          28.94879513864082    6.72768789978797    6.53515807041331
C          29.71893698110258    7.70746014004829    7.15773596188893
C          29.02419685092454    8.64041350503528    7.94817282991372
C          27.61630142452838    8.58088067651008    8.04006099583980
C          29.55969633617982    9.70042553336957    8.73831882043159
C          28.62289338872037   10.44726201707151    9.36139403484279
S          27.00483647825609    9.87777561537938    9.03233428634471
C          28.82270576239863   11.60641415753336   10.27474807718666
C          28.44296058951836   11.25260916534299   11.71353267572151
C          27.01973164093439    5.55401808159871    5.90149236572434
C          27.96122021370024    4.82743595739549    5.26091082789623
S          29.56872419141472    5.45639907711553    5.51852658417384
C          27.77617135860612    3.60487837269978    4.43096682462713
C          28.47914857456707    2.39675170117560    5.05095935330926
C          31.15594604475929    7.77464766594915    6.99943729688361
S          32.12470256308104    6.33138231242808    6.99981398058503
C          33.58160081146809    7.25618473536408    6.78673903663924
C          33.30589967499375    8.59949871634225    6.71730369584065
C          31.94108044271356    8.88847838515555    6.83573728556016
Cl         16.51997285860006    7.89694206518856   11.23670309451522
Cl         20.45231559487934    5.73397883972839   -1.23815749573946
C          37.00221672514133    3.62284642380881    6.41920093521779
C          36.43346254653012    4.90943279645059    6.50496474374251
C          37.26686756645957    6.05443579427175    6.53723624924871
C          38.65445260449240    5.98980803050021    6.52564878117086
C          39.22504171796476    4.70442528669736    6.44301536350931
C          38.39221753398780    3.56038553680364    6.39531619235692
C          35.06484407769007    5.25574499294340    6.60958757942733
C          34.84041341761765    6.59797728241627    6.68971905064007
S          36.32905844080165    7.51928764210887    6.65295193161320
C          40.59658580047218    4.36584608134044    6.33780382862254
C          40.82554733509307    3.02688959080090    6.22371785282693
S          39.33658181355293    2.10267363686940    6.24066444135282
C          36.19818728915233    2.42043129043356    6.33546915247697
C          39.48782765065186    7.17320357681700    6.60433700769409
C          36.45383659895196    1.20005193616517    6.89397535052830
C          35.48365386427414    0.23243752386547    6.55813245835112
C          34.48632955733736    0.68787187528203    5.74604547386554
S          34.74579345559357    2.35591725175777    5.37358936678052
C          40.61684489150010    7.35708627686776    7.34981805927563
C          41.17600377017888    8.64174525353155    7.17955699096456
C          40.49964203101620    9.44081510945409    6.30477216395814
S          39.11942876632053    8.60359132413731    5.68236135927063
C          33.33819675619901   -0.06300742819502    5.16770790058235
C          33.67774883189246   -0.59881930540974    3.77470274284795
C          40.77819914656571   10.85353896436282    5.92665311446332
C          39.94262831660363   11.81930048687202    6.77029981820521
C          42.07953842427709    2.36055367485454    6.11930929735914
S          43.56957564632291    3.23922831424559    6.30300384797127
C          44.50882458010422    1.79402523636843    6.06149388403437
C          43.68670806189243    0.71469734644214    5.85363651686849
C          42.32380266894770    1.03033340253626    5.88288068579076
C          45.95326227600115    1.80304356430648    6.15857146283410
C          46.74552052377345    2.85356001566991    5.65969695873496
C          48.14834869513113    2.82420263671412    5.83015070448742
C          48.81995133691995    1.80176235617008    6.49127092645140
C          48.03389532570790    0.73802534171955    6.96283726698683
C          46.63287918974581    0.75968012016472    6.78796073726114
C          48.46698565204623   -0.44509503309423    7.63214434080245
C          47.46060407463736   -1.27070757235129    7.98961976704113
S          45.89976290057538   -0.65044019915635    7.50574641301722
C          47.54608527483789   -2.59394125655983    8.66757543486821
C          47.23619929642240   -3.73400584152911    7.69572055330070
C          46.33466685288244    4.01818043068582    4.94733004806024
C          47.34902370886225    4.84928146118143    4.62149652150273
S          48.89633504801605    4.24628663175315    5.15716862543684
C          47.28222409840317    6.13152200933306    3.86748853361293
C          47.92135038368682    5.99605001189280    2.48445947155064
C          50.25474070483632    1.82980067131117    6.70840139109391
S          51.35731608183728    2.23106388856914    5.42409731208172
C          52.70483803154906    2.02919899227886    6.46931237113814
C          52.33198614314747    1.68217177396539    7.72746832264630
C          50.93389970723601    1.56366888478257    7.86415148038504
Cl         35.55641804538275   -1.38657960539722    7.13965654403372
Cl         42.60125892020690    9.14370978349825    8.00752631490498
H          -4.38566048097656    6.90712215254572    5.39168141284721
H          -5.04630826443978    4.65248690306201    6.49887218115194
H           2.51253114414753    5.05819932549609    4.82101366390391
H          -0.81129105081421    9.92693222995922    4.74969149241525
H           1.57319078665139    3.05703977748258    4.02427851766020
H          -5.25587516979186   10.22313428618160    1.65645084910355
H          -4.45186449967111   11.76337950347630    2.01275091717999
H          -6.33601261067707   10.26975309003044    3.90613363851687
H          -6.74447836960044   11.71547209210627    2.97545751625844
H          -5.53496734468919   11.80412468022155    4.26003304533592
H           1.22829800260090    0.52904488256105    8.80559143777448
H           2.22524910881348   -0.27237152561774    7.57681619563221
H          -0.82931485590907   -0.38909936298113    7.73151927397636
H           0.27369327328660   -1.68541134793037    8.21015647704579
H           0.16504435362456   -1.19700221483172    6.51577592410572
H           5.74526388510982    9.35191467080057    2.05317328061176
H           3.19185161129469    9.22773905168817    2.50256416863158
H          10.91036367143731    7.46669202917692   -0.00402722354023
H          10.01656765020107    8.40337197616966   -2.22719890371110
H           8.45026886816032    9.22473903429681   -2.12044326897193
H           8.83651351790452    6.24639536765127   -2.69163634840294
H           8.39498252328728    7.47760480623094   -3.87965446362580
H           7.28041935866080    7.07229030676464   -2.56973080155144
H           6.74112675665311    6.72025128493329    5.77195295496918
H           9.12565166770845    4.94226827875954    7.92242415724354
H           7.64130037940969    5.90259486034583    8.03032684099016
H          10.49498859800719    6.99765655010913    8.23154513916339
H           9.38637860160925    6.76479237012460    9.58749054063363
H           9.02451517453340    7.96797622183160    8.34511387431694
H          14.38542904229256    5.39510655141159    1.04543292539652
H          11.81076494886667    5.47525299480350    0.70974693944877
H          14.99569844900631    7.22089085127597    5.43562527198620
H          22.08385521562982    6.72845287895983    4.54369319666081
H          18.11907741130188    6.85988638901676    8.96219626572248
H          18.92639934528890    6.92442864920348    1.01424416083184
H          14.28570031379960   10.64855928086137    9.13501556452348
H          14.50554501205865    9.71048235987386   10.62301597359465
H          12.83595101682138    8.84718974748159    8.20509107031248
H          12.19032974782701    9.45438530066505    9.73419279902643
H          13.04471819784615    7.90901034997861    9.68805896721418
H          23.49254171639478    4.02006532453670    1.08792765925536
H          22.82515929704274    4.37606759953505   -0.51633473990063
H          21.87202561999696    2.13623268164264    1.33869299641292
H          22.88148622592874    1.92327448282567   -0.09679871672414
H          21.21577845581049    2.48809775560093   -0.26310944704138
H          25.07841340186600    8.16110554521148    9.56762758336796
H          22.52599993302070    8.09640078897364    9.13570394263371
H          30.61398841450433    9.87642636824042    8.84886386777656
H          28.20706025361212   12.44496295019553    9.93896334778021
H          29.87056310920407   11.91082956949274   10.23241735534247
H          27.39562965847376   10.96425350480356   11.76585413561902
H          28.60175085818495   12.10750886324474   12.36578926439821
H          29.04902659089988   10.42339768178872   12.07149743689632
H          25.97575013113793    5.30255835109970    5.86906612996201
H          28.18438828630822    3.78054609637038    3.43175722757976
H          26.70697736831953    3.40590965633083    4.33351329045266
H          29.54635594610139    2.58793318273524    5.13875573324231
H          28.33169127541070    1.51568159820565    4.43147793588768
H          28.08139050338037    2.19577711653888    6.04311024553844
H          34.07094470374208    9.34202115054827    6.57365969987868
H          31.53685802008373    9.88169363888332    6.75612694570444
H          34.26058746047934    4.54389313005498    6.63455571127027
H          41.39177842460921    5.08835347941860    6.31633769196884
H          37.27973836791818    0.99700557514505    7.54972491272187
H          41.01632041005580    6.62627516378913    8.02842582289198
H          32.46925048615398    0.59478844717399    5.10177939567347
H          33.09515061960038   -0.89642411898968    5.83015020005594
H          33.91926646963106    0.22209782721553    3.10328005599652
H          32.83191001327554   -1.14636535353410    3.36719892771563
H          34.53342336411214   -1.26759087821592    3.82693769895612
H          40.54531403048363   11.00098686381673    4.87024167877378
H          41.83990505148628   11.05601308780163    6.08134853636880
H          38.88240320701803   11.62530113271689    6.62461012083207
H          40.15343961993652   12.84641967586163    6.48409993551199
H          40.17586489857958   11.69641888711219    7.82522201477608
H          44.05699518776941   -0.27362116134255    5.65143372054810
H          41.53533239069943    0.31431994058003    5.73269018170664
H          49.50223578124346   -0.66456927722989    7.82080332325998
H          46.83379700052099   -2.62659922326423    9.49585447419059
H          48.55233687240484   -2.71748009270471    9.07345096145583
H          46.23101123497832   -3.62369952480460    7.29540997620568
H          47.30533764355603   -4.69209046910000    8.20449072285506
H          47.94145828667668   -3.72677704149909    6.86767199934577
H          45.31386792066100    4.22261614532542    4.68138287017038
H          47.80590501059346    6.91015819548259    4.42817459767147
H          46.23573409793352    6.42640002995360    3.76649211595133
H          48.96584976701518    5.70787445278018    2.57941855353973
H          47.86757870296606    6.94135174665169    1.95040448911445
H          47.40471648080980    5.23650372607714    1.90199539263126
H          53.69321034044516    2.18117886542266    6.08364381278898
H          53.02549576574924    1.51690693955286    8.53262342281335
H          50.44302694848658    1.32791965445604    8.79167909062817
