196
 SCF done       -322.744279192554          0.000476451566
C           0.97562477454667    0.84104344000349   -0.12686544148444
C           1.19037088308395   -0.48284027043500    0.32917645991769
C           0.16260554081376   -1.38348128781657    0.57928122232043
C          -1.14518857431080   -0.92602878394585    0.32483567122810
C          -1.36092757857744    0.39759466920834   -0.12860474864812
C          -0.33354333013979    1.30538251902767   -0.36554122995542
C          -2.35328761942656   -1.66141705408022    0.40467800575190
C          -3.45542331952615   -0.94620180001810    0.04282238551347
S          -3.05533516442824    0.69658404981887   -0.41560331996206
C           2.19250220795017    1.55432539365148   -0.24988401898697
C           3.29476510186663    0.82308653973896    0.07790615202296
S           2.88624948644468   -0.80425533406895    0.57578818994817
C          -0.61362003634812    2.64410830871207   -0.84276112335399
C           0.40704366617274   -2.72310238543726    1.07404281623431
C          -1.64817717658853    3.46343650506931   -0.48515474359982
C          -1.64295812857379    4.69934259241522   -1.16076273974793
C          -0.62099091572319    4.82777476459647   -2.05000422241272
S           0.37146852125284    3.40847909059629   -2.06012555930855
C          -0.26883920508904   -3.40432815311626    2.04659812949573
C           0.24521881537613   -4.69504842582622    2.28248353303119
C           1.30400414422649   -5.00983198840054    1.48802612692159
S           1.70044435984843   -3.69498199687094    0.43095281447455
C          -0.26835461493483    5.99550892121093   -2.90504061269431
C           1.00297496758053    6.68416663012736   -2.40371237835914
C           2.11179551071520   -6.26135404702536    1.46330275921740
C           3.53735313541952   -6.01348295316956    1.95915973386250
C          -7.11158270292277   -1.42535807152727   -0.32847346691573
C          -6.91010124618017   -2.70305647558322    0.24915241502736
C          -7.94339957193463   -3.58690383887650    0.53424438997730
C          -9.24157458253900   -3.16593604250261    0.18240369112808
C          -9.44276008297940   -1.89062113893070   -0.39910338782436
C          -8.41024709892298   -1.00062927505950   -0.67452441105204
C         -10.44793787548880   -3.89954148683362    0.28039231466495
C         -11.54080472204919   -3.22566519888224   -0.18218068224474
S         -11.12625163632621   -1.62725454494854   -0.77201955640128
C          -5.89900120797861   -0.70187901807741   -0.43432930019981
C          -4.80948283898185   -1.38764479593041    0.01359976313975
S          -5.22675172811859   -2.98074587014732    0.60618511209206
C          -8.67019044680823    0.27781058390551   -1.30418107333504
C          -7.71595676994941   -4.86353783843548    1.17931875910767
C          -9.71862907789706    1.12775267714414   -1.08764870061056
C          -9.68819776984518    2.27281382281882   -1.90758137370398
C          -8.63293670690958    2.29807989091328   -2.76642352706984
S          -7.63610606408405    0.89647411989827   -2.56297796035397
C          -8.43530559567028   -5.43865977784097    2.18940652852398
C          -7.91846290110828   -6.68229550113383    2.60280035741391
C          -6.81397438864632   -7.06779800709238    1.90733896466928
S          -6.37820678372984   -5.87979392438921    0.72337360946450
C          -8.25593032035393    3.35113410233709   -3.75033097590911
C          -7.00980036378644    4.11445959997712   -3.29654605315519
C          -5.98581224908708   -8.29381687097773    2.07998864918897
C          -4.60783432592006   -7.95508130276067    2.65161138787752
C           9.09420797689542    2.96497474970972   -0.42562453475009
C           9.31335940816088    1.67275502361320    0.11292826356069
C           8.29075366943017    0.77650202774747    0.39630972912070
C           6.97821455895187    1.23049145770913    0.16242110792143
C           6.75719580036163    2.52667198497070   -0.36277224843125
C           7.78197504938914    3.41175026592781   -0.68173935240462
C           5.76408681845470    0.53565681128465    0.38574694184479
C           4.65573209081710    1.23943132385100    0.02075318921784
S           5.05627555495006    2.82703853049667   -0.60182337835209
C          10.31011025675227    3.65743377282003   -0.63587747331545
C          11.41983632100003    2.93342854303320   -0.30915282982282
S          11.01414109450099    1.34485966906872    0.30720004623256
C           7.49340858974166    4.70463233455698   -1.26790126041403
C           8.54677798696780   -0.56453989904136    0.88293313787620
C           6.46448424187885    5.55310114367187   -0.96705411239522
C           6.44327256271047    6.71274101211371   -1.76608892374482
C           7.43927749824849    6.75292364867552   -2.69238185527450
S           8.44372128867159    5.34610203261555   -2.58081527914556
C           7.96930673309296   -1.73602334099240    0.48248568012799
C           8.46444632286775   -2.86360834301951    1.16771137174606
C           9.40959880617956   -2.56041892765502    2.09814985280337
S           9.72133728721752   -0.85591591940425    2.13484137038977
C           7.74801765110726    7.82202571924024   -3.68259791858913
C           9.04322403437422    8.55425668258205   -3.32656405353952
C          10.17124073787978   -3.48166596389356    2.98715337467825
C          11.63784569981179   -3.57432863606701    2.56193896155477
C         -12.89063448883936   -3.67160583681429   -0.21012815188800
S         -13.33321395077315   -5.22344596328035    0.42638636036148
C         -15.01433654288520   -4.94864342383696    0.03195990659272
C         -15.19608656692492   -3.70768643586437   -0.56578903020701
C         -13.99187631719182   -3.00361407664689   -0.69313146068730
C         -16.53062361516322   -3.20144587065701   -1.01319684766008
C         -16.48999613092431   -1.82310236905568   -1.66050361752217
C         -15.95292878858677   -5.96182161868949    0.35354692484597
C         -15.66458252737332   -7.18264560137908    0.94844230921705
C         -16.77461147168254   -7.98485641820959    1.16200501905750
C         -17.96209042273948   -7.40901680774596    0.73858356327429
S         -17.65521585533761   -5.82662862491432    0.05655543109494
C         -19.29527869015745   -7.87123422162789    0.77910904387485
C         -19.75582159339908   -9.05843175169178    1.26858503020235
C          12.78016027803208    3.32688041426967   -0.43529586322182
S          13.20685800635543    4.86087458481323   -1.12257642021749
C          14.91032657869702    4.50995739275227   -0.94348747105747
C          15.11101172826636    3.26093093061716   -0.36847134259411
C          13.90240097788006    2.60984932153668   -0.09072772645315
C          16.46733656060100    2.69448799571368   -0.09182848757822
C          16.44767359692396    1.32061603370516    0.56594844176124
C          15.84588218453617    5.47494221851236   -1.39535954078159
C          15.53953197699081    6.70100440982237   -1.97142641598966
C          16.64914829592409    7.44226699417445   -2.34473303998382
C          17.85260254398158    6.81182763587419   -2.06794155374512
S          17.56390141453209    5.25876396316707   -1.31793896603999
C          19.18382584931210    7.21125899524942   -2.30178619388223
C         -21.19733008724307   -9.39757673323435    1.25065426813554
C         -18.92624754675323  -10.05108367966239    1.82411993437100
N         -18.25795933599741  -10.86691832373235    2.27795409019318
O         -21.65586747313268  -10.43595372472305    1.65847289362894
O         -21.94468134846804   -8.40367328028859    0.73811701384659
C         -23.35025882933192   -8.63913050092094    0.66795746863067
C         -23.72059820701558   -9.46022274455312   -0.55872287614756
C          19.62964768993109    8.35668329326359   -2.89346943929558
C          18.80769929309473    9.38477450449135   -3.38120771804725
C          21.09250785167583    8.53806750496001   -3.04367501483533
N          18.14697163870650   10.23549498679672   -3.78092988766712
O          21.91377653596116    7.74657641513156   -2.64593394350293
O          21.37992237164542    9.67342816089957   -3.68730899271589
C          22.75922682457123    9.97304530322750   -3.89155045374961
C          23.36911273994485   10.64224409500862   -2.66825482579126
H          -2.40649060159315   -2.69667614200059    0.68893063559593
H           2.26475113370478    2.57989876089670   -0.56197303840132
H          -2.37024553518382    3.20672159697788    0.26866251781152
H          -2.37660634818834    5.46770698046571   -0.99166786719944
H          -1.08247277874377   -2.97850770005150    2.60632472076561
H          -0.16050641916041   -5.36708980320152    3.01811715059741
H          -1.10063496618495    6.70245914405271   -2.89391791389218
H          -0.11269517905217    5.66537725042255   -3.93530103197065
H           0.86762744744981    7.02902280045654   -1.38091312515607
H           1.24127846946415    7.53941699669468   -3.03110917515829
H           1.84107216765746    5.99097292480972   -2.42686464582293
H           2.15206134609160   -6.65198635993512    0.44303106094281
H           1.62365035791669   -7.00652103092569    2.09488040952476
H           4.03085347182444   -5.27730543139394    1.32872709039582
H           4.11165653843727   -6.93623464620195    1.93440473199598
H           3.52322225948486   -5.63863404956983    2.98004682777352
H         -10.50784285071470   -4.90557460287338    0.65445315690162
H          -5.82305162814978    0.29944394338466   -0.81688460883254
H         -10.46964085926856    0.95880491686839   -0.33717708823726
H         -10.42898541281880    3.05147190380307   -1.86222719681225
H          -9.28165059928091   -4.96415615086453    2.65346042803001
H          -8.35384792115810   -7.27041788131849    3.39136361549684
H          -9.09335750280699    4.04327932251203   -3.86118479423588
H          -8.05918873393567    2.89306060766770   -4.72307774271216
H          -7.18620014867934    4.58767239513103   -2.33313884117366
H          -6.75424007473464    4.88364035215577   -4.02097201972594
H          -6.16610735926956    3.43486984483870   -3.19832928252567
H          -5.85940009564094   -8.79150497725660    1.11511938332616
H          -6.50760901751496   -8.97828867683917    2.75195662260962
H          -4.07802201617953   -7.28258922749021    1.98066296912949
H          -4.01831958686455   -8.85986380857608    2.77658595211599
H          -4.70927278962048   -7.46836819645950    3.61900171307969
H           5.70658904325145   -0.44719945910515    0.81708527418227
H          10.37643271632644    4.66224213926188   -1.01140771051538
H           5.76475491828229    5.37279927008313   -0.17128793734651
H           5.70808246800890    7.49053236398752   -1.65806010026957
H           7.24363742267800   -1.79434766674638   -0.30903980430779
H           8.12694780190464   -3.86684139446832    0.97555070957925
H           6.91667046831966    8.52983549801132   -3.70271109815320
H           7.84817681518750    7.38368073853736   -4.67902265475379
H           8.96427415160168    9.00472631412365   -2.33962220284984
H           9.24507501741436    9.33824578193695   -4.05189544334114
H           9.87986755417684    7.85910957894339   -3.32353548911124
H           9.71046957278780   -4.47082722777720    2.94551322833379
H          10.12052938941578   -3.12343203100694    4.01852174129764
H          11.71292084898541   -3.94032315263270    1.54048298651470
H          12.17899379212284   -4.25311082528324    3.21625614533346
H          12.10536026377440   -2.59354456007740    2.61225298673111
H         -13.90522377659944   -2.02417286753240   -1.12632304359612
H         -17.20255869307892   -3.17448818559260   -0.14884350252311
H         -16.95813433824422   -3.91969709863595   -1.72064527153692
H         -16.11471774368719   -1.07825612718753   -0.96298371731394
H         -17.49357982329056   -1.53275807654572   -1.96157613081402
H         -15.85710104397165   -1.82906806551467   -2.54460637248636
H         -14.66091520769590   -7.46380936812645    1.21427982557148
H         -16.72818557528066   -8.95881685747659    1.61218322596890
H         -20.03890765088326   -7.19625894230224    0.37553314724360
H          13.82761510399801    1.63300642407261    0.35058512204592
H          17.01485133308400    3.39341679290700    0.54907846871607
H          17.02063587706009    2.63471671365783   -1.03504337385325
H          15.93456001665392    1.35723826507186    1.52388594766170
H          17.46753644082787    0.98537217422213    0.73784247358891
H          15.95271887675323    0.59235039830363   -0.07186737581580
H          14.52394978469752    7.02713868383035   -2.11047006729991
H          16.59402156610747    8.41081837223484   -2.80623269349220
H          19.96006737835875    6.52436167660298   -1.98274826494268
H         -23.79908100624539   -7.64418977133158    0.62841970280261
H         -23.66879305112496   -9.15737402589481    1.57850054780328
H         -23.36275036983018   -8.97202697987163   -1.46235461819721
H         -24.80040711785090   -9.56382359621914   -0.61360557736219
H         -23.27528043698902  -10.44968302995620   -0.48997129441215
H          22.77661361025120   10.63988250759330   -4.75581675504647
H          23.29362592841126    9.04527588168122   -4.12257170048323
H          22.80259938578578   11.53303625642126   -2.40791604804289
H          24.39677935775239   10.92228277890568   -2.88090582797750
H          23.35804458243503    9.95612203131087   -1.82480963027881
