# ORCA input file
# SCF done       -468.728609851756          0.000216489054
! wb97x-d3 def2-SVP def2/J RIJCOSX Grid4 TightSCF
%maxcore 5000
%tddft
    Mode sTDA
    Ethresh 5.0
    maxcore 5000
end

%pal
  nprocs 6
  end
* xyz 1 2
   C       14.55680         0.99020        -4.21346
   C       14.77616         0.64615        -5.55481
   C       13.75257         0.82989        -6.51553
   C       12.50888         1.36160        -6.20949
   C       12.28131         1.68402        -4.86214
   C       13.29982         1.48333        -3.89836
   C       15.95057         0.08471        -6.13970
   C       15.83034        -0.11813        -7.46692
   S       14.28935         0.34562        -8.10535
   C       11.09356         2.20019        -4.28425
   C       11.19120         2.41872        -2.94116
   S       12.77107         1.97707        -2.31163
   C       15.60985         0.86232        -3.19602
   C       11.48088         1.59143        -7.23318
   C       10.20908         2.92375        -2.03805
   C        9.01925         3.58342        -2.28468
   C        8.29947         3.93569        -1.13607
   C        8.91688         3.54545         0.02757
   S       10.42921         2.74398        -0.32748
   C        8.57980         3.73819         1.40196
   S        9.90444         3.66382         2.52221
   C        8.87537         3.97027         3.88967
   C        7.55530         4.12635         3.48464
   C        7.38645         3.98551         2.06827
   C        6.42017         4.34313         4.39267
   C        5.12514         4.43015         3.72875
   C        4.95237         4.26260         2.32125
   C        6.06724         3.98623         1.41903
   C        3.94763         4.69042         4.38909
   S        2.62342         4.74618         3.27894
   C        3.64664         4.40938         1.92405
   C        9.53666         3.99433         5.15569
   C        9.20405         4.54142         6.37182
   C       10.19607         4.36567         7.34513
   S       11.12074         3.25952         5.23749
   O        6.52627         4.44717         5.60616
   O        5.90036         3.75626         0.23135
   C        3.75151         4.90919         5.84469
   C        2.31702         5.25188         6.21815
   C        3.05760         4.28091         0.56635
   C        2.78289         2.81209         0.23090
   C       11.31862         3.68609         6.90748
   C       11.09209         0.56861        -8.09287
   C       10.12033         0.78994        -9.04913
   C        9.51784         2.03463        -9.18059
   C        9.91342         3.05602        -8.32557
   C       10.88039         2.84120        -7.36350
   C       16.85746         1.44685        -3.39540
   C       17.83714         1.35270        -2.42647
   C       17.60279         0.67073        -1.23908
   C       16.35784         0.08591        -1.04473
   C       15.37162         0.17981        -2.00710
   C        8.42770         2.25741       -10.18849
   C        7.06158         1.94672        -9.57291
   C       18.64757         0.62376        -0.16221
   C       18.47051         1.80822         0.78978
  Cl        8.45178         3.99595        -3.84960
  Cl        9.98728         4.96191         8.93952
   C       14.87229         3.09714        10.40816
   C       14.18476         3.02536         9.18377
   C       14.77321         2.36639         8.07451
   C       16.01683         1.75877         8.12048
   C       16.71749         1.86115         9.33318
   C       16.13685         2.52970        10.44004
   C       12.91263         3.56459         8.86820
   C       12.51488         3.31113         7.58592
   S       13.71355         2.39001         6.69193
   C       18.01686         1.37667         9.62033
   C       18.42229         1.62861        10.89915
   S       17.20301         2.49440        11.82038
   C       14.27353         3.71084        11.60082
   C       16.56760         1.02905         6.97105
   C       19.66406         1.31286        11.52510
   C       20.68416         0.47162        11.12005
   C       21.78294         0.43065        11.98795
   C       21.63475         1.24929        13.08010
   S       20.08801         2.05782        13.03315
   C       22.47338         1.47522        14.21431
   S       21.67281         1.90872        15.69283
   C       23.17357         2.01109        16.56443
   C       24.24924         1.73500        15.73067
   C       23.84876         1.43105        14.39004
   C       25.66166         1.83704        16.12478
   C       26.60618         1.59696        15.04006
   C       26.20785         1.30709        13.69909
   C       24.80687         1.22578        13.29322
   C       27.97109         1.61486        15.20473
   S       28.77210         1.26223        13.71381
   C       27.27488         1.09560        12.86163
   C       23.06972         2.35755        17.94593
   C       23.89204         2.10732        19.01729
   C       23.37575         2.58087        20.22982
   S       21.62161         3.18173        18.47196
   O       26.03663         2.10852        17.25594
   O       24.47163         1.02655        12.13629
   C       28.73187         1.88715        16.45055
   C       30.23863         1.76393        16.27993
   C       27.28174         0.80661        11.40454
   C       27.15112         2.10049        10.59555
   C       22.14181         3.19892        20.12752
   C       16.62575         1.62314         5.71416
   C       17.12889         0.92563         4.63364
   C       17.57755        -0.38128         4.77348
   C       17.51869        -0.97191         6.02990
   C       17.02242        -0.27923         7.11647
   C       13.00241         3.33321        12.02716
   C       12.45678         3.88023        13.17164
   C       13.15794         4.81818        13.91979
   C       14.42245         5.19783        13.48838
   C       14.97578         4.65386        12.34577
   C       18.15587        -1.12298         3.60349
   C       19.67274        -0.93193         3.54601
   C       12.58662         5.35998        15.19807
   C       12.96444         4.45282        16.37119
  Cl       20.63871        -0.49106         9.70209
  Cl       24.24699         2.37636        21.69285
   C       20.43496         4.91856        24.51508
   C       20.49775         4.60755        23.14635
   C       19.42972         4.95885        22.28285
   C       18.28865         5.61699        22.71397
   C       18.21082         5.89823        24.08946
   C       19.27857         5.54269        24.95221
   C       21.54189         3.93914        22.46255
   C       21.31919         3.80445        21.12172
   S       19.77818         4.49585        20.63766
   C       17.14580         6.51794        24.78865
   C       17.38518         6.67314        26.12480
   S       18.95389         6.03537        26.59220
   C       21.54751         4.61331        25.42422
   C       17.23127         6.02455        21.77923
   C       16.56499         7.25870        27.13339
   C       15.31065         7.83753        27.05918
   C       14.81551         8.31210        28.28088
   C       15.67904         8.10490        29.32820
   S       17.13468         7.31831        28.77206
   C       15.60439         8.49234        30.70139
   S       17.11485         8.80303        31.50306
   C       16.32225         9.23044        32.98761
   C       14.94816         9.10731        32.86937
   C       14.53699         8.68231        31.56658
   C       14.00375         9.29439        33.98203
   C       12.62730         8.91643        33.66652
   C       12.21957         8.47194        32.36850
   C       13.14196         8.35499        31.23986
   C       11.59439         8.94326        34.57119
   S       10.11338         8.44405        33.82962
   C       10.87737         8.18991        32.29856
   C       17.16571         9.62318        34.07869
   C       16.97513        10.54487        35.07297
   C       18.10131        10.66992        35.91115
   S       18.76604         8.92637        34.17967
   O       14.33370         9.71678        35.07798
   O       12.78065         7.98578        30.13381
   C       11.60150         9.36893        35.99454
   C       11.42962        10.88678        36.10588
   C       10.08343         7.67514        31.15321
   C       10.22928         6.15504        31.03541
   C       19.14238         9.86287        35.56086
   C       16.68847         5.11365        20.87716
   C       15.71436         5.50979        19.98213
   C       15.25869         6.82215        19.95693
   C       15.79938         7.72838        20.86039
   C       16.77280         7.33941        21.75975
   C       22.84227         5.02648        25.12055
   C       23.88642         4.74334        25.97870
   C       23.67127         4.03824        27.15648
   C       22.37759         3.63245        27.45887
   C       21.32716         3.91585        26.60814
   C       14.17547         7.23613        19.00347
   C       12.79709         6.94259        19.59941
   C       24.80173         3.76808        28.10651
   C       24.93193         4.90908        29.11771
  Cl       14.39858         7.99946        25.61636
  Cl       18.15568        11.74702        37.24567
   H       16.83046        -0.16102        -5.57306
   H       16.55879        -0.52685        -8.13997
   H       10.19752         2.36868        -4.85057
   H        7.35981         4.45162        -1.17097
   H        8.27500         5.04237         6.56390
   H        4.43173         5.70425         6.16634
   H        4.07823         4.00821         6.37401
   H        1.99928         6.16609         5.72085
   H        2.23438         5.39668         7.29207
   H        1.64247         4.44976         5.92526
   H        3.76519         4.67716        -0.16439
   H        2.12750         4.85072         0.51626
   H        3.71758         2.25821         0.21654
   H        2.32041         2.73741        -0.74940
   H        2.11708         2.36820         0.96814
   H       11.54011        -0.40936        -7.99597
   H        9.82450        -0.01673        -9.70476
   H        9.45998         4.03301        -8.41684
   H       11.19138         3.65129        -6.71963
   H       17.04777         1.99771        -4.30539
   H       18.79866         1.81819        -2.59239
   H       16.15718        -0.45098        -0.12832
   H       14.41410        -0.29245        -1.84446
   H        8.58697         1.61280       -11.05528
   H        8.44192         3.29555       -10.52670
   H        7.02266         0.91124        -9.24192
   H        6.26976         2.10927       -10.30054
   H        6.88001         2.58690        -8.71244
   H       19.64461         0.66284        -0.60551
   H       18.56058        -0.30869         0.39921
   H       18.58838         2.74618         0.25169
   H       19.20719         1.77103         1.58893
   H       17.47420         1.79283         1.22684
   H       12.33289         4.13446         9.56889
   H       18.63006         0.89074         8.88576
   H       22.64804        -0.17744        11.80830
   H       24.83902         1.60973        18.93853
   H       28.37666         1.20108        17.22606
   H       28.46866         2.89055        16.80071
   H       30.50760         0.75896        15.96101
   H       30.73998         1.97286        17.22123
   H       30.59894         2.46881        15.53329
   H       26.43306         0.16204        11.16833
   H       28.20980         0.29714        11.13748
   H       26.19793         2.57481        10.81275
   H       27.19323         1.87769         9.53303
   H       27.95600         2.78995        10.84197
   H       16.29244         2.64262         5.58829
   H       17.17134         1.40370         3.66588
   H       17.86021        -1.98955         6.15716
   H       16.96179        -0.76018         8.08209
   H       12.45354         2.58695        11.47111
   H       11.47154         3.57195        13.49214
   H       14.98160         5.92971        14.05380
   H       15.95308         4.97516        12.01736
   H       17.70954        -0.75272         2.67888
   H       17.93100        -2.18808         3.69093
   H       19.91755         0.12452         3.46132
   H       20.09269        -1.45617         2.69044
   H       20.13725        -1.31660         4.45114
   H       11.49871         5.41767        15.12384
   H       12.97089         6.36582        15.38055
   H       12.58705         3.44602        16.20613
   H       12.54320         4.83376        17.29847
   H       14.04654         4.39736        16.47153
   H       22.41431         3.56509        22.96250
   H       16.23523         6.82026        24.30817
   H       13.85842         8.78621        28.38032
   H       16.07264        11.10804        35.20691
   H       12.55729         9.09114        36.44214
   H       10.79141         8.86845        36.52874
   H       12.26436        11.38861        35.62415
   H       11.40563        11.17977        37.15174
   H       10.50335        11.20374        35.63094
   H       10.45080         8.13299        30.23315
   H        9.03207         7.93417        31.29266
   H       11.26531         5.89912        30.83074
   H        9.61396         5.78729        30.21910
   H        9.91812         5.66742        31.95700
   H       20.09640         9.76688        36.03816
   H       17.02005         4.08597        20.89043
   H       15.30299         4.78966        19.28917
   H       15.45946         8.75448        20.85443
   H       17.20286         8.06413        22.43595
   H       23.02334         5.59098        24.21718
   H       24.88533         5.07294        25.72990
   H       22.19132         3.08253        28.37033
   H       20.33122         3.57548        26.85037
   H       14.28496         6.69116        18.06404
   H       14.25540         8.30425        18.79182
   H       12.69621         5.88110        19.81596
   H       12.01148         7.23429        18.90578
   H       12.66149         7.49258        20.52803
   H       25.73705         3.66994        27.55167
   H       24.62113         2.83305        28.64077
   H       25.12640         5.84841        28.60489
   H       25.74903         4.71412        29.80849
   H       24.01168         5.01591        29.68760
*
