# ORCA input file
# SCF done       -294.322329046208          0.000838464711
! wb97x-d3 def2-SVP def2/J RIJCOSX Grid4 TightSCF
%maxcore 5000
%tddft
    Mode sTDA
    Ethresh 5.0
    maxcore 5000
end

%pal
  nprocs 6
  end
* xyz -1 2
   C        2.00669        -3.08347         0.15917
   C        2.05929        -2.27678         1.32071
   C        1.11688        -1.28090         1.56394
   C        0.07268        -1.17302         0.67560
   C       -0.03306        -2.04864        -0.43142
   C        0.95340        -2.98887        -0.71906
   C        3.17790        -4.05274         0.12124
   C        3.78026        -3.81964         1.48428
   C        3.14519        -2.75951         2.11530
   C        4.77968        -4.39706         2.25618
   C        4.88638        -3.79998         3.50228
   S        3.75018        -2.47700         3.69445
   C       -1.10238        -0.20785         0.71468
   C       -1.94743        -0.74760        -0.41085
   C       -1.29723        -1.79367        -1.04870
   C       -3.24039        -0.54212        -0.87237
   C       -3.59747        -1.45507        -1.85203
   S       -2.27213        -2.53794        -2.24813
   C        5.69971        -4.18849         4.61066
   C       -4.87554        -1.68186        -2.44965
   C       -1.93369        -0.25592         1.97980
   C       -0.54810         1.18119         0.45237
   C        2.66510        -5.45777        -0.10938
   C        4.23670        -3.66641        -0.89851
   C        6.77262        -5.08737         4.53777
   C        7.47255        -5.53042         5.68164
   C        7.18080        -5.06989         6.97838
   C        6.14640        -4.11266         7.05273
   C        5.42377        -3.69120         5.90511
   C       -6.06508        -1.05516        -2.05469
   C       -7.31654        -1.39277        -2.61537
   C       -7.47616        -2.40254        -3.57640
   C       -6.29402        -3.07417        -3.95146
   C       -5.02923        -2.69183        -3.42729
   N        5.62610        -3.46859         8.10053
   N        4.67372        -2.72793         7.60355
   N        4.49957        -2.81159         6.31639
   N       -6.09116        -4.13399        -4.74400
   N       -4.80253        -4.32197        -4.70818
   N       -4.11289        -3.51395        -3.95458
   C        7.86948        -5.60415         8.10109
   C        7.70729        -5.36473         9.42564
   C       -8.77829        -2.76013        -4.04157
   C       -9.10247        -3.34371        -5.22068
   C       -4.17347        -5.30482        -5.54103
   C        3.85847        -1.88409         8.43148
   C       -8.30762        -3.48840        -6.43566
   N       -8.99698        -4.25971        -7.37288
   C      -10.25897        -4.63165        -7.04149
   S      -10.71632        -3.99804        -5.47823
   C        8.50785        -6.11140        10.39938
   N        8.19029        -5.73637        11.69797
   C        7.23251        -4.78465        11.80960
   S        6.62670        -4.26288        10.24553
   C        8.83916        -6.41014        12.80724
   O        9.34318        -6.94944        10.14107
   C        6.71950        -4.20868        12.94714
   C        5.73248        -3.21359        12.79952
   C        7.06792        -4.50044        14.27485
   C        2.48791        -5.92984        -1.40412
   C        1.97478        -7.19346        -1.62661
   C        1.61932        -8.01605        -0.56573
   C        1.78973        -7.53630         0.72595
   C        2.29977        -6.27155         0.95377
   C        5.29390        -4.53853        -1.13142
   C        6.30088        -4.20220        -2.01466
   C        6.28212        -2.98655        -2.68722
   C        5.22938        -2.11579        -2.44351
   C        4.21866        -2.44659        -1.55829
   C       -1.87470        -1.32836         2.85748
   C       -2.69379        -1.36632         3.97186
   C       -3.60035        -0.34748         4.22933
   C       -3.66719         0.71612         3.33798
   C       -2.84859         0.76144         2.22659
   C       -0.48332         1.69951        -0.83307
   C        0.06963         2.94674        -1.05929
   C        0.57994         3.70263        -0.01297
   C        0.51784         3.17672         1.27124
   C       -0.03466         1.93176         1.50282
   O       -7.23526        -2.98657        -6.68595
   C       -8.37314        -4.51812        -8.65656
   C      -11.14008        -5.40497        -7.75710
   C      -12.41811        -5.67187        -7.22351
   C      -10.90990        -6.00353        -9.00645
   N        4.93100        -2.40172        12.67133
   N        7.30496        -4.69920        15.38169
   N      -10.78859        -6.52221       -10.02487
   N      -13.46239        -5.89516        -6.80391
   C       -4.45133        -0.36803         5.46630
   C        1.13916         5.07496        -0.25580
   C        7.39904        -2.60157        -3.61430
   C        1.11115        -9.40809        -0.80810
   C        2.27257       -10.40398        -0.82537
   C        8.48311        -1.83329        -2.85561
   C       -3.91350        -4.70799        -6.92159
   C        0.03788         6.13048        -0.13709
   C       -3.72592         0.32210         6.62339
   C        4.71978        -0.93809         9.25660
   C        7.97608        -7.54159        13.35345
   C       -8.86505        -3.55125        -9.72723
   O        8.51408        -6.41413         5.55033
   C        8.19844        -7.70088         5.04249
   O        7.15494        -5.57645         3.30132
   C        8.36750        -5.02924         2.81120
   O       -8.45343        -0.74971        -2.18676
   C       -8.53281         0.63741        -2.47221
   O       -6.02850        -0.07673        -1.07850
   C       -6.55010        -0.47992         0.17764
   H        1.19332        -0.65276         2.43790
   H        0.86948        -3.63079        -1.58237
   H        5.37844        -5.23924         1.96680
   H       -3.90455         0.22059        -0.51538
   H        8.63402        -6.33820         7.86946
   H       -9.58474        -2.55839        -3.34673
   H       -3.23989        -5.60047        -5.05945
   H       -4.85097        -6.15772        -5.61458
   H        3.19031        -1.34453         7.75807
   H        3.27104        -2.51937         9.10114
   H        9.77154        -6.81641        12.40561
   H        9.06571        -5.68195        13.58794
   H        2.76374        -5.30738        -2.24342
   H        1.84607        -7.54539        -2.64051
   H        1.51518        -8.15881         1.56592
   H        2.41672        -5.91663         1.96741
   H        5.32005        -5.49123        -0.62270
   H        7.11330        -4.89411        -2.18707
   H        5.19581        -1.16404        -2.95474
   H        3.41186        -1.74941        -1.38589
   H       -1.18650        -2.14011         2.67238
   H       -2.63013        -2.20636         4.64907
   H       -4.37001         1.51777         3.51698
   H       -2.91141         1.59806         1.54562
   H       -0.86927         1.12801        -1.66443
   H        0.10813         3.33637        -2.06679
   H        0.91037         3.74823         2.10045
   H       -0.07850         1.54371         2.51015
   H       -7.30080        -4.37675        -8.49813
   H       -8.56286        -5.55239        -8.94817
   H       -5.39542         0.14646         5.27577
   H       -4.67449        -1.39962         5.74596
   H        1.92309         5.28969         0.47334
   H        1.57818         5.12447        -1.25433
   H        7.83733        -3.49716        -4.05918
   H        7.01163        -1.97429        -4.41964
   H        0.40851        -9.68827        -0.02068
   H        0.58706        -9.45003        -1.76506
   H        2.80024       -10.38552         0.12569
   H        1.90698       -11.41310        -1.00060
   H        2.97821       -10.14829        -1.61275
   H        8.89185        -2.44655        -2.05552
   H        9.29191        -1.55295        -3.52643
   H        8.06764        -0.92976        -2.41494
   H       -3.18358        -3.90560        -6.85120
   H       -3.53666        -5.47143        -7.59594
   H       -4.83894        -4.30019        -7.32143
   H       -0.40417         6.10560         0.85650
   H        0.44217         7.12465        -0.31289
   H       -0.74748         5.94081        -0.86541
   H       -3.50546         1.35627         6.36817
   H       -4.34014         0.30881         7.52066
   H       -2.78749        -0.18476         6.83680
   H        5.32017        -0.30260         8.61020
   H        4.08389        -0.31243         9.87498
   H        5.37648        -1.50864         9.90749
   H        7.76692        -8.26596        12.56932
   H        8.50607        -8.04089        14.15890
   H        7.03638        -7.16141        13.74734
   H       -8.65282        -2.52633        -9.43135
   H       -8.35390        -3.75951       -10.66234
   H       -9.93434        -3.66012        -9.89200
   H        9.14937        -8.22402         4.96326
   H        7.54465        -8.23451         5.74015
   H        7.71848        -7.65130         4.06363
   H        8.26176        -3.95320         2.63792
   H        9.19701        -5.20604         3.50052
   H        8.56129        -5.53262         1.86583
   H       -7.68882         1.19014        -2.05567
   H       -8.57475         0.80022        -3.55418
   H       -9.46012         0.97813        -2.01557
   H       -5.94573        -1.28612         0.60683
   H       -6.49163         0.39669         0.82030
   H       -7.58882        -0.80841         0.09537
*
