# ORCA input file
# SCF done       -281.664558956949          0.000421165696
! wb97x-d3 def2-SVP def2/J RIJCOSX Grid4 TightSCF
%maxcore 5000
%tddft
    Mode sTDA
    Ethresh 5.0
    maxcore 5000
end

%pal
  nprocs 6
  end
* xyz -1 2
   C        2.25708        -2.59532        -0.10808
   C        2.20863        -2.01858         1.18342
   C        1.26373        -1.05174         1.51917
   C        0.30504        -0.76064         0.57863
   C        0.26155        -1.45699        -0.65413
   C        1.27067        -2.34029        -1.03151
   C        3.42294        -3.56615        -0.22094
   C        3.86300        -3.64111         1.22117
   C        3.18471        -2.69564         1.97768
   C        4.71456        -4.43444         1.97958
   C        4.64357        -4.13084         3.33082
   S        3.55843        -2.79511         3.64787
   C       -0.87529         0.18955         0.70227
   C       -1.71443        -0.25811        -0.46785
   C       -0.99547        -1.14363        -1.25789
   C       -3.01411        -0.05429        -0.91146
   C       -3.31185        -0.82193        -2.02485
   S       -1.91973        -1.74533        -2.57117
   C        5.20243        -4.86556         4.42129
   C       -4.60128        -1.02346        -2.59744
   C       -1.54420         0.04842         2.05074
   C       -0.48617         1.63428         0.42357
   C        2.94712        -4.87892        -0.80382
   C        4.58700        -2.98941        -1.01067
   C        6.15509        -5.87344         4.27537
   C        6.55987        -6.67754         5.33194
   C        6.06800        -6.54955         6.63215
   C        5.10040        -5.53581         6.81294
   C        4.70531        -4.69467         5.73264
   C       -4.84820        -1.93519        -3.62304
   C       -6.12105        -2.27053        -4.06400
   C       -7.27797        -1.70907        -3.52188
   C       -7.05550        -0.71865        -2.52839
   C       -5.75015        -0.38484        -2.06784
   N        4.34818        -5.19901         7.86860
   N        3.60976        -4.21540         7.43995
   N        3.76042        -3.86501         6.19562
   N       -7.92780         0.01510        -1.82414
   N       -7.18087         0.72343        -1.02236
   N       -5.89331         0.53906        -1.10618
   C        6.45339        -7.47154         7.65277
   C        6.39920        -7.29771         8.99605
   C       -8.63340        -2.02804        -3.81647
   C       -9.21975        -3.04347        -4.50786
   C       -7.74604         1.62972        -0.06344
   C        2.74844        -3.49501         8.33150
   C       -8.67934        -4.20504        -5.20128
   N       -9.70630        -5.04376        -5.62965
   C      -10.97566        -4.63506        -5.37706
   S      -10.98509        -3.10088        -4.54740
   C        6.25951        -6.06937         9.77213
   N        6.08146        -6.37261        11.12345
   C        6.18324        -7.68021        11.46933
   S        6.56245        -8.67431        10.08215
   C        5.90433        -5.28350        12.06484
   O        6.34234        -4.92893         9.37819
   C        6.01933        -8.25631        12.70506
   C        6.16887        -9.65195        12.84304
   C        5.68511        -7.59880        13.90011
   C        2.93149        -5.06595        -2.18327
   C        2.45572        -6.23644        -2.73007
   C        1.97461        -7.25997        -1.91080
   C        1.97657        -7.07279        -0.53332
   C        2.45370        -5.88913         0.00520
   C        5.67004        -3.80916        -1.31628
   C        6.76292        -3.31150        -1.98811
   C        6.81332        -1.96922        -2.37322
   C        5.73708        -1.14684        -2.06323
   C        4.64205        -1.65786        -1.38483
   C       -1.08825         0.79030         3.13655
   C       -1.67130         0.65454         4.37663
   C       -2.73341        -0.23069         4.57261
   C       -3.17974        -0.98600         3.49447
   C       -2.58115        -0.84727         2.25331
   C       -1.44181         2.63267         0.59423
   C       -1.15069         3.94446         0.29847
   C        0.10995         4.30043        -0.18752
   C        1.06556         3.30692        -0.36108
   C        0.76151         1.98863        -0.05946
   O       -7.51604        -4.48441        -5.40226
   C       -9.35828        -6.25610        -6.34769
   C      -12.15610        -5.27192        -5.67316
   C      -13.37569        -4.67035        -5.29962
   C      -12.30747        -6.50691        -6.32433
   N        6.28749       -10.78599        12.96941
   N        5.40894        -7.12599        14.91038
   N      -12.50659        -7.50857        -6.85114
   N      -14.37389        -4.19236        -4.99715
   O       -3.22523        -0.28151         5.84122
   O        0.29109         5.61970        -0.45471
   O        7.95243        -1.58882        -3.01212
   O        1.53592        -8.37383        -2.55154
   C       -4.38260        -1.04296         6.11821
   C        1.53271         6.05119        -0.97543
   C        8.07549        -0.27452        -3.51603
   C        1.02701        -9.45069        -1.78992
   C        3.55862        -2.43304         9.07008
   C       -7.55267         1.09257         1.35112
   C        7.29986        -0.06611        -4.81381
   C        0.60973       -10.54444        -2.76017
   C        7.20771        -4.92988        12.77120
   C       -5.66090        -0.37297         5.62154
   C        1.44190         7.55179        -1.20313
   C       -9.44727        -6.06083        -7.85638
   H        1.26468        -0.58977         2.49427
   H        1.24756        -2.83399        -1.99089
   H        5.31334        -5.23544         1.58688
   H       -3.74877         0.57432        -0.44461
   H        6.58837        -6.04659         3.30260
   H        7.30138        -7.44014         5.14058
   H       -4.00213        -2.43495        -4.07261
   H       -6.21571        -3.01394        -4.83683
   H        6.77865        -8.44432         7.30058
   H       -9.32851        -1.34220        -3.34248
   H       -7.24703         2.59660        -0.16880
   H       -8.80473         1.72939        -0.30680
   H        1.95720        -3.03957         7.73364
   H        2.32668        -4.21317         9.03769
   H        5.56494        -4.43134        11.47021
   H        5.13069        -5.55284        12.78593
   H        3.30587        -4.28856        -2.83311
   H        2.44477        -6.38786        -3.79782
   H        1.60806        -7.83677         0.13318
   H        2.43894        -5.76065         1.07774
   H        5.64608        -4.85078        -1.03275
   H        7.60350        -3.94289        -2.22881
   H        5.73181        -0.10298        -2.33521
   H        3.81974        -0.99719        -1.15300
   H       -0.27672         1.49050         3.00297
   H       -1.32330         1.22935         5.22031
   H       -3.98736        -1.69330         3.60070
   H       -2.94119        -1.44918         1.43186
   H       -2.42061         2.37364         0.96906
   H       -1.88608         4.72221         0.43013
   H        2.05112         3.54078        -0.73198
   H        1.51975         1.23367        -0.20555
   H       -8.32640        -6.48340        -6.06555
   H      -10.01008        -7.06730        -6.01972
   H       -4.28841        -2.05657         5.70899
   H       -4.40280        -1.11489         7.20925
   H        2.33974         5.82340        -0.26483
   H        1.74334         5.53597        -1.92322
   H        7.77619         0.46083        -2.75877
   H        9.14664        -0.15647        -3.70296
   H        1.79956        -9.82605        -1.10396
   H        0.16281        -9.11860        -1.19758
   H        3.91536        -1.68066         8.37118
   H        2.94492        -1.95111         9.82553
   H        4.41831        -2.89765         9.54759
   H       -6.49308         0.95415         1.55277
   H       -7.95997         1.79507         2.07234
   H       -8.06050         0.13800         1.46709
   H        6.23322        -0.20707        -4.65702
   H        7.47295         0.93971        -5.18674
   H        7.63398        -0.78219        -5.56026
   H        1.46588       -10.86548        -3.34701
   H        0.21268       -11.39406        -2.21214
   H       -0.15181       -10.16764        -3.43725
   H        7.96348        -4.64693        12.04198
   H        7.03731        -4.09362        13.44255
   H        7.57539        -5.76823        13.35805
   H       -5.65128        -0.27085         4.53902
   H       -6.52282        -0.96680         5.91283
   H       -5.74987         0.61819         6.05903
   H        1.22979         8.05691        -0.26493
   H        2.38042         7.92281        -1.60493
   H        0.64098         7.77242        -1.90337
   H       -8.77888        -5.26247        -8.17092
   H       -9.15393        -6.97996        -8.35445
   H      -10.46224        -5.81688        -8.16089
*
