# ORCA input file
# SCF done       -273.559872459516          0.000675080559
! wb97x-d3 def2-SVP def2/J RIJCOSX Grid4 TightSCF
%maxcore 5000
%tddft
    Mode sTDA
    Ethresh 5.0
    maxcore 5000
end

%pal
  nprocs 6
  end
* xyz -1 2
   C       -0.45938         1.79064        -0.62017
   C        0.19870         2.99456        -1.01800
   C       -6.57485        -6.21682         5.72247
   C       -4.83606         0.76590         4.71780
   C       -3.32588        -0.87665         5.86706
   C       -3.32165        -2.14726        -1.42662
   C       -1.92046        -3.93529        -0.37032
   C        1.17716         3.06173        -2.00774
   C        1.80631         4.25046        -2.35616
   C        1.49876         5.48128        -1.77827
   C        0.54399         5.44091        -0.73775
   C       -0.09484         4.21969        -0.37912
   C       -6.31029        -7.46271         5.15570
   C       -6.85097        -8.65299         5.62180
   C       -7.71749        -8.70766         6.71448
   C       -8.00502        -7.45280         7.31505
   C       -7.45081        -6.23117         6.83480
   N        0.09190         6.38387         0.10085
   N       -0.76284         5.75778         0.85939
   N       -0.92381         4.48490         0.63857
   N       -8.77469        -7.15496         8.36966
   N       -8.67088        -5.85984         8.49008
   N       -7.91248        -5.24923         7.62386
   C        2.17047         6.67622        -2.19117
   C        1.67448         7.93504        -2.14940
   C       -8.33703        -9.85231         7.28951
   C       -8.29102       -11.18374         7.00733
   C       -9.39028        -5.14024         9.50188
   C       -1.49534         6.43429         1.89128
   C       -7.57942       -11.96197         6.00218
   N       -7.85793       -13.31965         6.14187
   C       -8.71447       -13.67014         7.13465
   S       -9.25315       -12.26672         8.01860
   C        0.29030         8.36014        -1.95602
   N        0.22398         9.74997        -1.85041
   C        1.38223        10.42789        -2.04376
   S        2.70074         9.33918        -2.41410
   C       -1.04870        10.35172        -1.50353
   O       -0.70170         7.66904        -1.95866
   C        1.59897        11.78285        -1.99970
   C        2.88910        12.28724        -2.26551
   C        0.65141        12.77361        -1.69442
   C       -2.92809        -2.24888        -2.75587
   C       -3.81480        -1.96178        -3.77411
   C       -5.11688        -1.56674        -3.49196
   C       -5.50460        -1.47123        -2.16285
   C       -4.61947        -1.75418        -1.13736
   C       -2.83766        -4.89471        -0.77807
   C       -2.49884        -6.23490        -0.75859
   C       -1.24264        -6.64854        -0.33520
   C       -0.33293        -5.68323         0.07605
   C       -0.66790        -4.34256         0.06670
   C       -6.08454         1.07085         4.19346
   C       -6.48704         2.38634         4.06577
   C       -5.64971         3.42803         4.44379
   C       -4.40211         3.11592         4.96654
   C       -3.99602         1.80124         5.10411
   C       -1.99267        -1.12829         5.57983
   C       -1.07795        -1.28363         6.60632
   C       -1.46987        -1.20016         7.93515
   C       -2.80822        -0.95325         8.21527
   C       -3.72504        -0.79231         7.19572
   O       -6.82688       -11.56312         5.13775
   C       -7.26250       -14.25019         5.20047
   C       -9.15118       -14.92380         7.48718
   C      -10.04098       -15.06364         8.57238
   C       -8.80867       -16.13968         6.87340
   N        3.93341        12.71075        -2.48005
   N       -0.06827        13.63208        -1.43860
   N       -8.57556       -17.16969         6.42061
   N      -10.76691       -15.18999         9.45158
   C       -6.10499         4.85478         4.33261
   C       -0.46254        -1.31802         9.04225
   C       -0.85723        -8.09909        -0.37349
   C       -6.09544        -1.30147        -4.59940
   S       -1.64874         1.83778         0.65074
   C       -1.89157         0.13412         0.52781
   C       -1.09780        -0.42643        -0.46095
   C       -0.28332         0.50999        -1.10625
   C       -2.66667        -0.69808         1.39081
   C       -2.78973        -2.04949         1.01568
   C       -2.28134        -2.46165        -0.35449
   O       -1.07588        -1.75054        -0.71045
   C       -3.21330        -0.24912         2.59382
   C       -3.86674        -1.12311         3.43405
   C       -3.97380        -2.47767         3.06776
   C       -3.43639        -2.92547         1.85856
   C       -4.39081        -0.68432         4.79075
   O       -5.55193        -1.44059         5.19184
   C       -5.48210        -2.76890         4.97322
   C       -4.70925        -3.31513         3.96043
   C       -6.21951        -3.72398         5.68304
   C       -6.00592        -5.00688         5.22490
   S       -4.87914        -5.02918         3.88986
   C       -1.15191        10.57884         0.00043
   C       -0.56268         6.86894         3.01618
   C       -6.89622         5.26151         5.57733
   C        0.11653         0.05712         9.38126
   C       -6.83215        -2.58776        -4.97882
   C       -0.20891        -8.43999        -1.71697
   C      -10.76665        -4.72862         8.98800
   C       -8.21404       -14.57488         4.05511
   H        1.46072         2.15993        -2.52681
   H        2.54776         4.22720        -3.14200
   H       -5.64629        -7.50011         4.30391
   H       -6.58897        -9.56795         5.11841
   H        3.18413         6.55095        -2.55391
   H       -8.97282        -9.59207         8.12999
   H       -9.48726        -5.79924        10.36666
   H       -8.79958        -4.26005         9.76252
   H       -1.98440         7.30510         1.44619
   H       -2.24867         5.73087         2.25009
   H       -1.17583        11.28584        -2.05194
   H       -1.81072         9.63570        -1.82488
   H       -1.91649        -2.55361        -2.98088
   H       -3.49290        -2.04395        -4.80244
   H       -6.51307        -1.16567        -1.92255
   H       -4.94871        -1.66969        -0.11214
   H       -3.81953        -4.59308        -1.11298
   H       -3.22287        -6.97078        -1.07810
   H        0.64862        -5.98533         0.41269
   H        0.04755        -3.60182         0.38962
   H       -6.74228         0.27018         3.89118
   H       -7.46253         2.60855         3.65716
   H       -3.73543         3.91163         5.26787
   H       -3.01979         1.58062         5.51050
   H       -1.65912        -1.19800         4.55497
   H       -0.04187        -1.47736         6.36744
   H       -3.13475        -0.88578         9.24325
   H       -4.76387        -0.59934         7.41971
   H       -6.37208       -13.75009         4.80924
   H       -6.96533       -15.15633         5.73030
   H       -5.24040         5.51306         4.22469
   H       -6.73719         4.97339         3.45025
   H       -0.93608        -1.73815         9.93168
   H        0.34709        -1.98433         8.73818
   H       -0.15265        -8.31719         0.43154
   H       -1.74226        -8.72232        -0.23214
   H       -6.82175        -0.55124        -4.28048
   H       -5.56852        -0.91721        -5.47500
   H        0.40430         0.24638        -1.88741
   H       -3.09695         0.79128         2.85747
   H       -3.55069        -3.96602         1.59353
   H       -6.88291        -3.49937         6.49641
   H       -0.42120        11.31134         0.33508
   H       -2.14300        10.94956         0.24422
   H       -0.98270         9.64209         0.52751
   H        0.22029         7.51213         2.62216
   H       -1.12116         7.41593         3.77043
   H       -0.10130         6.00161         3.48212
   H       -6.27848         5.16167         6.46707
   H       -7.22752         6.29424         5.49754
   H       -7.76960         4.62433         5.69516
   H       -0.67472         0.73279         9.69854
   H        0.84663        -0.02425        10.18298
   H        0.60409         0.48736         8.50928
   H       -7.37537        -2.97925        -4.12159
   H       -7.54014        -2.39817        -5.78217
   H       -6.12492        -3.34496        -5.30998
   H        0.68289        -7.83643        -1.87040
   H        0.07191        -9.49006        -1.74933
   H       -0.90092        -8.23953        -2.53193
   H      -11.34320        -5.60875         8.71412
   H      -11.30168        -4.18631         9.76215
   H      -10.66594        -4.08755         8.11556
   H       -8.48601       -13.66501         3.52475
   H       -7.72293       -15.25099         3.36183
   H       -9.11706       -15.05799         4.42076
*
