# ORCA input file
# SCF done       -207.726078633724          0.000769634567
! wb97x-d3 def2-SVP def2/J RIJCOSX Grid4 TightSCF
%maxcore 5000
%tddft
    Mode sTDA
    Ethresh 5.0
    maxcore 5000
end

%pal
  nprocs 6
  end
* xyz -1 2
   C       -1.96757         4.27431        -0.76766
   O       -2.66114         4.50251         0.20763
   C       -0.82531         5.08222        -1.23573
   C       -0.29566         6.23211        -0.68252
   C        0.79941         6.81743        -1.29881
   C        1.32137         6.23205        -2.44226
   C        0.80416         5.07829        -3.01721
   C       -0.28961         4.49833        -2.39730
   C       -1.06653         3.29991        -2.72481
   C       -0.84097         2.48689        -3.80622
   C       -1.58108         1.33449        -4.14217
   N       -2.12742         0.38565        -4.49157
   C        0.18237         2.69626        -4.75503
   N        0.99339         2.80700        -5.55974
   C       -2.08750         3.15751        -1.70928
   F        2.38423         6.80921        -3.02606
   C       -3.00194         2.13376        -1.62644
   C      -16.63967         0.69541        16.33398
   O      -16.57573        -0.23756        15.55682
   C      -17.56332         0.77782        17.48321
   C      -18.51635        -0.14072        17.88062
   C      -19.28830         0.14823        18.99423
   C      -19.07924         1.34384        19.66524
   C      -18.12605         2.27928        19.28597
   C      -17.35550         1.98225        18.17391
   C      -16.27755         2.71938        17.51279
   C      -15.74927         3.89835        17.97177
   C      -14.66748         4.61236        17.41278
   N      -13.79039         5.25913        17.04880
   C      -16.20954         4.57621        19.12139
   N      -16.53099         5.18440        20.04029
   C      -15.86702         1.95415        16.34886
   F      -19.83991         1.61282        20.73909
   C      -14.96183         2.42007        15.42453
   C      -14.43587         1.85025        14.25794
   S      -13.34904         2.88350        13.31678
   C      -13.15010         1.64116        12.16802
   C      -13.88307         0.48164        12.48196
   C      -14.58890         0.59762        13.66003
   C      -12.43727         1.42463        10.97202
   C      -12.70624         0.13241        10.51048
   C      -13.67441        -0.57920        11.42697
   S      -11.36149         2.28441         9.95442
   C      -11.27821         0.90709         8.87757
   C      -12.05441        -0.15561         9.32290
   C      -10.49612         0.93505         7.68272
   C       -9.67689         1.99550         7.30909
   C       -8.91352         2.01935         6.13761
   C       -8.89356         0.99121         5.20035
   C       -9.72800        -0.10408         5.54680
   C      -10.49508        -0.13460         6.74980
   N       -9.96614        -1.25216         4.89802
   N      -10.80358        -1.89422         5.66267
   N      -11.15684        -1.29944         6.76690
   C       -8.11059         1.00945         4.00626
   S       -7.00141         2.31438         3.64605
   C       -6.54178         1.52703         2.19725
   C       -7.23106         0.32618         1.98850
   C       -8.10660         0.03034         3.01994
   C       -5.60991         1.72312         1.15650
   C       -5.70737         0.63541         0.26845
   C       -6.78903        -0.32816         0.70180
   S       -4.40734         2.85718         0.72071
   C       -4.00160         1.87754        -0.68424
   C       -4.81120         0.72993        -0.76593
   F       -8.16643         3.11931         5.93033
   C       -7.90342        -0.30666        -0.36776
   C       -9.14270        -1.12041        -0.02104
   C       -6.24462        -1.74572         0.93373
   C       -5.05926        -1.76859         1.89179
   C      -14.96768        -0.86202        10.63056
   C      -16.09041        -1.50925        11.43022
   C      -13.07568        -1.86561        12.01761
   C      -11.72370        -1.63516        12.68278
   C      -11.27351        -3.20949         5.33227
   C      -10.29031        -4.26621         5.82730
   F       -9.58840         3.07662         8.10579
   H       -0.73145         6.65460         0.20929
   H        1.25386         7.71449        -0.90922
   H        1.26192         4.67888        -3.90681
   H       -2.95084         1.37806        -2.40096
   H      -18.64649        -1.05820        17.32822
   H      -20.04625        -0.53201        19.34885
   H      -18.02105         3.18777        19.85484
   H      -14.58773         3.42096        15.60506
   H      -15.19580        -0.16620        14.10937
   H      -12.11129        -1.07865         8.77759
   H       -8.71878        -0.84769         3.10259
   H       -4.69853         0.01734        -1.56391
   H       -8.19594         0.73433        -0.52576
   H       -7.47646        -0.67607        -1.30237
   H       -9.59258        -0.76551         0.90187
   H       -9.87513        -1.01736        -0.81842
   H       -8.90598        -2.17558         0.08391
   H       -7.04336        -2.36450         1.34364
   H       -5.94457        -2.16495        -0.02848
   H       -5.34085        -1.36186         2.86047
   H       -4.71564        -2.79017         2.03500
   H       -4.23234        -1.18109         1.50012
   H      -15.32325         0.08715        10.22159
   H      -14.70382        -1.50636         9.78891
   H      -16.37973        -0.88866        12.27294
   H      -16.95981        -1.63651        10.78890
   H      -15.79973        -2.48850        11.79983
   H      -13.77026        -2.26414        12.75713
   H      -12.96754        -2.59789        11.21498
   H      -11.81007        -0.90911        13.48793
   H      -11.35295        -2.56715        13.10256
   H      -10.99375        -1.26796        11.96494
   H      -12.24709        -3.33673         5.80872
   H      -11.37681        -3.26284         4.24684
   H      -10.17747        -4.20017         6.90662
   H      -10.65646        -5.25670         5.57380
   H       -9.31807        -4.12146         5.36291
*
