# ORCA input file
# SCF done       -199.270009418636          0.000676126360
! wb97x-d3 def2-SVP def2/J RIJCOSX Grid4 TightSCF
%maxcore 5000
%tddft
    Mode sTDA
    Ethresh 5.0
    maxcore 5000
end

%pal
  nprocs 6
  end
* xyz -1 2
   C       -2.34597         3.72218        -1.39101
   O       -3.05409         4.10975        -0.47767
   C       -1.19990         4.44303        -1.97426
   C       -0.68228         5.67384        -1.62399
   C        0.41816         6.14499        -2.32689
   C        0.97246         5.39154        -3.35087
   C        0.45302         4.15250        -3.70554
   C       -0.64486         3.67163        -3.01030
   C       -1.40791         2.42807        -3.13324
   C       -1.14503         1.42847        -4.03529
   C       -1.86048         0.22024        -4.16261
   N       -2.38301        -0.78947        -4.33065
   C       -0.09834         1.46729        -4.98015
   N        0.72898         1.42776        -5.77527
   C       -2.45455         2.46206        -2.13296
   C       -3.38626         1.47734        -1.90771
   C      -12.13578         0.88725        18.28449
   O      -11.97198         1.95500        17.72696
   C      -12.12110         0.68012        19.74596
   C      -11.88140         1.60817        20.74006
   C      -11.90927         1.17747        22.05875
   C      -12.17149        -0.15172        22.35717
   C      -12.41619        -1.08628        21.35924
   C      -12.39214        -0.66602        20.03844
   C      -12.60643        -1.38229        18.78173
   C      -12.98986        -2.69573        18.68911
   C      -13.28079        -3.40573        17.50485
   N      -13.55538        -4.06438        16.60408
   C      -13.18027        -3.54501        19.79995
   N      -13.34656        -4.29935        20.64951
   C      -12.38092        -0.44615        17.69335
   C      -12.32327        -0.82666        16.37528
   C      -12.07869        -0.10043        15.20052
   S      -11.92074        -1.06221        13.72144
   C      -11.59558         0.35134        12.82488
   C      -11.63168         1.51250        13.61293
   C      -11.90268         1.25869        14.94111
   C      -11.25819         0.70699        11.50325
   C      -11.07072         2.09148        11.43557
   C      -11.29213         2.73126        12.78534
   S      -11.00845        -0.07800         9.99863
   C      -10.61671         1.46161         9.26490
   C      -10.71977         2.51533        10.16168
   C      -10.16982         1.47722         7.90755
   C       -9.56803         2.55337         7.26409
   C       -9.02056         2.47536         5.97818
   C       -9.02453         1.32791         5.18961
   C       -9.69467         0.23134         5.79141
   C      -10.23520         0.31222         7.10607
   N       -9.92756        -1.01355         5.34997
   N      -10.55666        -1.59845         6.33118
   N      -10.76904        -0.87894         7.39557
   C       -8.36482         1.21641         3.92806
   S       -7.29618         2.46867         3.33176
   C       -6.89272         1.48775         1.98771
   C       -7.57369         0.26676         1.98608
   C       -8.40544         0.11479         3.08272
   C       -6.00665         1.53063         0.89067
   C       -6.13312         0.32739         0.16975
   C       -7.19553        -0.55845         0.77784
   S       -4.79509         2.57343         0.28619
   C       -4.40323         1.38684        -0.95181
   C       -5.22758         0.25119        -0.86013
   F       -8.43431         3.59421         5.51029
   C       -8.43958        -0.67063        -0.13134
   C       -8.18841        -1.32712        -1.48198
   C       -6.64617        -1.93893         1.16704
   C       -5.51503        -1.85407         2.18529
   C       -9.99941         3.34938        13.36290
   C       -9.43320         4.52496        12.57821
   C      -12.44605         3.74681        12.75731
   C      -13.77012         3.12167        12.33352
   C      -10.96975        -2.97104         6.25844
   C      -10.14984        -3.82203         7.22183
   F       -9.44554         3.73751         7.89395
   H       -1.13049         6.24153        -0.82306
   H        0.84642         7.10370        -2.07584
   H        1.82830         5.77244        -3.88775
   H        0.90660         3.59122        -4.50572
   H       -3.33602         0.60805        -2.55234
   H      -11.67831         2.63625        20.48210
   H      -11.72464         1.87895        22.85840
   H      -12.18642        -0.47185        23.38824
   H      -12.61386        -2.11172        21.62392
   H      -12.45044        -1.88699        16.19037
   H      -11.97016         1.99665        15.71882
   H      -10.55365         3.53745         9.87931
   H       -9.01072        -0.74398         3.30409
   H       -5.10820        -0.58066        -1.53174
   H       -9.20051        -1.23452         0.41248
   H       -8.82793         0.33766        -0.29530
   H       -7.83595        -2.34839        -1.36782
   H       -9.11616        -1.35229        -2.04904
   H       -7.45719        -0.76416        -2.05507
   H       -7.46324        -2.53429         1.57929
   H       -6.27898        -2.43655         0.26913
   H       -5.86188        -1.40407         3.11256
   H       -5.13739        -2.84937         2.40666
   H       -4.69419        -1.25454         1.79840
   H      -10.21535         3.66644        14.38508
   H       -9.24406         2.56094        13.41357
   H      -10.14136         5.34717        12.52830
   H       -8.53443         4.88566        13.07319
   H       -9.16474         4.22856        11.56851
   H      -12.54971         4.17850        13.75434
   H      -12.19195         4.54611        12.06060
   H      -14.07467         2.34621        13.03249
   H      -14.54737         3.88145        12.30628
   H      -13.68862         2.67944        11.34294
   H      -12.02886        -3.02314         6.52303
   H      -10.82805        -3.29150         5.22531
   H      -10.27256        -3.45114         8.23611
   H      -10.48655        -4.85352         7.18004
   H       -9.09551        -3.78683         6.95840
*
