# ORCA input file
# SCF done       -225.093790934621          0.000927765135
! wb97x-d3 def2-SVP def2/J RIJCOSX Grid4 TightSCF
%maxcore 5000
%tddft
    Mode sTDA
    Ethresh 5.0
    maxcore 5000
end

%pal
  nprocs 6
  end
* xyz -1 2
   C        3.84030        -1.73507        -9.60712
   O        2.97086        -2.31304       -10.22760
   C        5.18662        -1.41511       -10.13229
   C        5.71092        -1.72817       -11.37070
   C        7.01166        -1.33281       -11.63588
   C        7.75313        -0.64353       -10.67602
   C        7.22355        -0.32609        -9.43410
   C        5.92173        -0.71777        -9.16188
   C        5.08156        -0.54226        -7.97684
   C        5.44623         0.17445        -6.86667
   C        4.65014         0.42874        -5.72874
   N        4.07980         0.70299        -4.77004
   C        6.70101         0.80264        -6.70983
   N        7.69965         1.33228        -6.51151
   C        3.81864        -1.21594        -8.22650
   C        2.84476        -1.36733        -7.26752
   C      -18.06269       -14.21240        -5.45767
   O      -17.27388       -13.62412        -4.74023
   C      -19.15824       -15.09530        -5.00569
   C      -19.50641       -15.43772        -3.71467
   C      -20.58397       -16.29263        -3.54624
   C      -21.28241       -16.78040        -4.65062
   C      -20.93099       -16.43527        -5.94777
   C      -19.85374       -15.58174        -6.12514
   C      -19.23661       -15.03664        -7.33682
   C      -19.65582       -15.29677        -8.61626
   C      -19.07762       -14.78261        -9.79571
   N      -18.67033       -14.40588       -10.80192
   C      -20.74614       -16.13360        -8.93672
   N      -21.62323       -16.79673        -9.26601
   C      -18.13245       -14.19823        -6.91924
   C      -17.28256       -13.51025        -7.75553
   C      -16.18893       -12.69039        -7.46850
   S      -15.57036       -12.27763        -5.87206
   C      -14.34318       -11.33845        -6.59807
   C      -14.39200       -11.33151        -8.00589
   C      -15.42886       -12.08847        -8.48920
   C      -13.24916       -10.54618        -6.19153
   C      -12.59751       -10.03451        -7.31664
   C      -13.27572       -10.49442        -8.58292
   S      -12.51236       -10.05911        -4.71988
   C      -11.31163        -9.15981        -5.62052
   C      -11.50098        -9.24937        -6.99119
   C      -10.28722        -8.45835        -4.93414
   C       -3.92341        -4.52512        -5.58973
   S       -2.73664        -3.61026        -4.68813
   C       -1.81688        -3.40101        -6.12180
   C       -2.40899        -3.99084        -7.24262
   C       -3.59931        -4.63583        -6.93286
   C       -0.57860        -2.83838        -6.49038
   C       -0.36800        -3.06955        -7.86050
   C       -1.55213        -3.78673        -8.46865
   S        0.71617        -2.01290        -5.75330
   C        1.58396        -1.97679        -7.29732
   C        0.83941        -2.58272        -8.31184
   C       -2.21597        -2.82958        -9.48477
   C       -3.53478        -3.32132       -10.06536
   C       -1.14708        -5.11765        -9.12127
   C       -0.37846        -6.02922        -8.17181
   C      -13.81776        -9.30764        -9.40106
   C      -14.75690        -8.41138        -8.60332
   C      -12.32958       -11.33931        -9.45685
   C      -11.73567       -12.53114        -8.71612
   F      -22.31940       -17.60360        -4.45950
   F      -20.95787       -16.65342        -2.31283
   F        7.56305        -1.61658       -12.82240
   F        9.00934        -0.27838       -10.95589
   S       -9.06930        -7.56086        -5.80188
   C       -8.30235        -7.08240        -4.31772
   C       -8.96102        -7.60317        -3.21325
   C      -10.07516        -8.38199        -3.58011
   C       -7.12773        -6.30891        -4.31631
   C       -6.54633        -5.66764        -3.23174
   C       -7.00548        -5.55160        -1.83848
   N       -7.86486        -6.48133        -1.26440
   C       -8.61407        -7.52928        -1.78565
   S       -6.22653        -6.03681        -5.77697
   C       -5.04832        -5.07545        -4.92279
   C       -5.37641        -4.97247        -3.59425
   C       -7.93465        -6.38316         0.20167
   C       -6.79910        -7.15612         0.85814
   O       -9.07381        -8.36338        -1.03140
   O       -6.55918        -4.65039        -1.15675
   H        5.13285        -2.26240       -12.10769
   H        7.84059         0.20628        -8.72954
   H        3.08855        -0.96318        -6.29222
   H      -18.96291       -15.05728        -2.86458
   H      -21.50425       -16.84109        -6.76480
   H      -17.46745       -13.60981        -8.81815
   H      -15.66654       -12.23358        -9.52826
   H      -10.85219        -8.75685        -7.69362
   H       -4.21586        -5.18418        -7.62259
   H        1.20745        -2.65445        -9.31850
   H       -2.38516        -1.87219        -8.98555
   H       -1.50250        -2.66058       -10.29336
   H       -4.27744        -3.45522        -9.28358
   H       -3.91395        -2.58378       -10.76885
   H       -3.40908        -4.25982       -10.59795
   H       -2.04747        -5.63251        -9.45765
   H       -0.52944        -4.89891        -9.99384
   H       -0.97212        -6.25769        -7.28922
   H       -0.13457        -6.96340        -8.67139
   H        0.54936        -5.56127        -7.85164
   H      -12.97027        -8.71934        -9.75826
   H      -14.34481        -9.70293       -10.27123
   H      -14.24586        -7.98212        -7.74459
   H      -15.11487        -7.59865        -9.23023
   H      -15.61694        -8.97300        -8.24636
   H      -12.88903       -11.69328       -10.32457
   H      -11.52359       -10.69564        -9.81451
   H      -12.51980       -13.19469        -8.35931
   H      -11.08674       -13.09502        -9.38142
   H      -11.14815       -12.20263        -7.86191
   H      -10.69593        -8.87444        -2.85318
   H       -4.79865        -4.41165        -2.88142
   H       -7.87551        -5.32547         0.46051
   H       -8.89626        -6.79108         0.51349
   H       -5.83814        -6.75535         0.54381
   H       -6.87732        -7.06729         1.93780
   H       -6.85598        -8.20787         0.58830
*
