# ORCA input file
# SCF done       -182.777781467066          0.000480687975
! wb97x-d3 def2-SVP def2/J RIJCOSX Grid4 TightSCF
%maxcore 5000
%tddft
    Mode sTDA
    Ethresh 5.0
    maxcore 5000
end

%pal
  nprocs 6
  end
* xyz -1 2
   C       -5.67104        -2.28915         2.60922
   O       -6.27234        -1.23413         2.72351
   C       -5.39365        -3.25204         3.69104
   C       -5.75523        -3.18345         5.02276
   C       -5.38045        -4.22004         5.86294
   C       -4.65949        -5.28316         5.34056
   F       -4.30527        -6.28000         6.16708
   C       -4.28427        -5.37281         4.00627
   C       -4.66168        -4.33444         3.17194
   C       -4.43935        -4.10991         1.74143
   C       -3.72559        -4.94164         0.91688
   C       -3.48528        -4.73411        -0.45729
   N       -3.24157        -4.63656        -1.57617
   C       -3.11017        -6.13890         1.34018
   N       -2.58536        -7.12220         1.61427
   C       -5.08182        -2.85911         1.39618
   C       -5.13482        -2.31649         0.13323
   C       -5.68540        -1.11928        -0.32851
   S       -6.47287         0.08965         0.68788
   C       -6.71557         1.10327        -0.68360
   C       -6.22688         0.51541        -1.86511
   C       -5.64082        -0.72794        -1.68016
   C       -5.09378        -1.54244        -2.80607
   C       -6.12410        -2.56895        -3.28557
   S       -6.46238         1.50673        -3.29317
   C       -7.20980         2.70584        -2.29719
   C       -7.26623         2.36100        -0.93994
   N       -7.88753         3.35607        -0.23324
   C       -8.35354         3.09493         1.11039
   C       -8.22507         4.35937        -1.11838
   C       -7.83866         3.94982        -2.43015
   C       -8.18484         4.69891        -3.57677
   N       -7.93177         4.42906        -4.84762
   S       -8.62508         5.56986        -5.76267
   N       -9.27328         6.45437        -4.57247
   C       -8.96864         5.88842        -3.41529
   C       -9.26060         6.34126        -2.10930
   C       -8.83041         5.63190        -0.95105
   N       -9.14182         6.38762         0.16987
   C       -8.49065         6.41767         1.46296
   C       -7.06029         6.93839         1.33993
   C       -9.75818         7.53253        -0.26604
   C       -9.86729         7.52334        -1.66083
   S      -10.61823         8.93718        -2.30994
   C      -10.78651         9.56909        -0.68614
   C      -10.27019         8.70662         0.29185
   S      -10.38654         9.40624         1.85959
   C      -11.18387        10.83477         1.19339
   C      -11.30341        10.77400        -0.19117
   C      -11.72797        11.88864        -1.09154
   C      -12.91560        11.50390        -1.97373
   C      -11.44932        11.87466         2.11110
   C      -12.49005        12.76184         2.07972
   C      -12.62042        13.95662         2.88339
   C      -11.62986        14.55730         3.61616
   C      -10.29909        14.09576         3.69652
   N       -9.19525        13.79206         3.78619
   C      -11.80690        15.73402         4.37332
   N      -11.89186        16.68138         5.01566
   C      -13.97934        14.46504         2.70175
   C      -14.61814        15.57161         3.23609
   C      -15.93333        15.79132         2.84978
   F      -16.57337        16.85839         3.35361
   C      -16.62051        14.96503         1.97264
   C      -15.97775        13.85496         1.44817
   C      -14.66557        13.61919         1.81246
   C      -13.78287        12.50784         1.40154
   O      -14.10086        11.53153         0.75771
   C       -7.23813         3.22341         2.14681
   H       -6.31679        -2.33832         5.38902
   H       -5.63646        -4.21859         6.91050
   H       -3.72467        -6.22959         3.66990
   H       -4.67264        -2.90214        -0.64940
   H       -4.85403        -0.86738        -3.62991
   H       -4.17920        -2.05858        -2.51007
   H       -7.02819        -2.06791        -3.62375
   H       -5.71355        -3.14352        -4.11081
   H       -6.38663        -3.25567        -2.48418
   H       -9.19766         3.75293         1.32185
   H       -8.72732         2.06532         1.13345
   H       -9.07553         7.09262         2.09293
   H       -8.49550         5.43847         1.92978
   H       -7.05818         7.94207         0.92124
   H       -6.59294         6.97224         2.32009
   H       -6.47271         6.29367         0.68916
   H      -11.97291        12.77161        -0.50078
   H      -10.87618        12.13410        -1.73454
   H      -13.76294        11.22385        -1.35501
   H      -13.19762        12.34895        -2.59652
   H      -12.65900        10.66720        -2.61787
   H      -10.75792        11.93054         2.94458
   H      -14.14548        16.24968         3.92723
   H      -17.64135        15.19963         1.71611
   H      -16.47927        13.18616         0.76628
   H       -6.52091         2.41731         2.02063
   H       -6.70937         4.16785         2.05171
   H       -7.65629         3.14901         3.14676
*
