# ORCA input file
# SCF done       -196.489070316326          0.000506483842
! wb97x-d3 def2-SVP def2/J RIJCOSX Grid4 TightSCF
%maxcore 5000
%tddft
    Mode sTDA
    Ethresh 5.0
    maxcore 5000
end

%pal
  nprocs 6
  end
* xyz -1 2
   C       -3.28307        -1.84919        -0.08792
   C       -3.90007        -1.03829         0.88464
   C       -5.07638        -0.38246         0.59651
   C       -5.65675        -0.61843        -0.64668
   C       -5.06828        -1.47751        -1.60514
   C       -3.85461        -2.06915        -1.33944
   C       -5.92641        -1.56717        -2.85412
   C       -7.02578        -0.59370        -2.51324
   C       -6.85101        -0.08771        -1.22225
   C       -8.16994        -0.11872        -3.11047
   C       -8.88412         0.76735        -2.28541
   S       -8.07973         0.99152        -0.73671
   C      -10.09305         1.34010        -2.68979
   C      -10.93723         2.21127        -2.04109
   C      -12.19526         2.70864        -2.55935
   C      -12.73006         3.65176        -1.57641
   C      -11.84831         3.71534        -0.48409
   C      -10.70414         2.81245        -0.72571
   C      -13.88037         4.42271        -1.57210
   C      -14.12951         5.24323        -0.47653
   C      -13.24569         5.29805         0.60579
   C      -12.09037         4.52597         0.60496
   O       -9.76599         2.62661         0.02793
   C      -12.81384         2.36280        -3.73376
   C      -14.05507         2.88376        -4.15680
   C      -12.32966         1.43962        -4.68378
   N      -12.01226         0.70224        -5.50600
   N      -15.05853         3.26626        -4.56216
   C       -5.15812        -1.15432        -4.11840
   C       -6.58245        -2.95930        -3.01104
   C       -2.04558        -2.36141         0.45536
   C       -1.89674        -1.87616         1.76907
   C       -3.05721        -0.97688         2.14190
   C       -2.62440         0.49080         2.34763
   C       -3.76461        -1.59796         3.36498
   C       -1.11561        -3.21930        -0.12801
   C       -0.04591        -3.62683         0.63602
   C        0.09346        -3.14481         1.95868
   C       -0.82846        -2.27775         2.53916
   C        1.10594        -4.54987         0.26629
   C        1.91065        -4.52040         1.54283
   C        1.29057        -3.70606         2.49532
   C        0.65372        -6.00750         0.03370
   C        1.86953        -3.93360        -0.92211
   C        3.04240        -5.12514         2.04082
   C        3.31599        -4.76032         3.37034
   S        2.10830        -3.64347         3.99090
   C        4.41198        -5.27851         4.06565
   C        4.84428        -5.06296         5.35359
   C        5.99450        -5.69025         5.97179
   C        6.10717        -5.15436         7.32886
   C        5.06013        -4.24210         7.54367
   C        4.23019        -4.15398         6.32452
   O        3.24255        -3.45700         6.17837
   C        6.83414        -6.62698         5.42499
   C        7.93210        -7.19731         6.10345
   N        8.83966        -7.70257         6.59215
   C        6.73736        -7.16894         4.12649
   N        6.73315        -7.66488         3.08997
   C        7.01956        -5.39876         8.34149
   C        6.86949        -4.72794         9.55105
   C        5.82315        -3.82273         9.75450
   C        4.90599        -3.57459         8.74052
   C       -0.21688        -6.25340        -1.19142
   C        3.11153        -4.69899        -1.35866
   C       -1.71037         0.75971         3.53575
   C       -5.00073        -0.86625         3.87124
   C       -4.61790         0.26860        -4.03291
   C       -5.62397        -4.13049        -3.17874
  Cl      -13.58509         6.32229         1.94191
  Cl      -15.55341         6.20412        -0.46484
  Cl        7.99775        -5.02526        10.81174
  Cl        5.66785        -3.01277        11.26089
   H       -5.54797         0.30186         1.28346
   H       -3.34563        -2.67607        -2.07178
   H       -8.51521        -0.37264        -4.09720
   H      -10.39544         1.02631        -3.68167
   H      -14.58541         4.40973        -2.38674
   H      -11.39923         4.55794         1.43228
   H       -4.32522        -1.84173        -4.26958
   H       -5.82743        -1.23926        -4.97685
   H       -7.20259        -3.13907        -2.12900
   H       -7.24618        -2.91248        -3.87720
   H       -2.11837         0.81408         1.43357
   H       -3.52663         1.09598         2.44797
   H       -4.04544        -2.62023         3.09640
   H       -3.03611        -1.66607         4.17424
   H       -1.24535        -3.54470        -1.14798
   H       -0.68916        -1.95858         3.55968
   H        1.55035        -6.62556        -0.03514
   H        0.10632        -6.32767         0.92432
   H        1.18221        -3.84725        -1.76493
   H        2.15996        -2.91924        -0.63540
   H        3.67272        -5.81945         1.51396
   H        5.00042        -5.96627         3.47030
   H        7.83929        -6.08805         8.22396
   H        4.09410        -2.87908         8.88279
   H        0.26890        -5.91023        -2.10078
   H       -0.40017        -7.32122        -1.29063
   H       -1.17851        -5.75810        -1.09318
   H        2.86587        -5.70963        -1.67267
   H        3.57413        -4.18744        -2.19992
   H        3.83957        -4.74833        -0.55414
   H       -0.74757         0.27355         3.40787
   H       -1.53567         1.83061         3.61664
   H       -2.15715         0.42133         4.46650
   H       -5.80232        -0.89606         3.13904
   H       -5.35766        -1.35309         4.77653
   H       -4.77955         0.16977         4.11238
   H       -3.95071         0.37515        -3.18014
   H       -4.06437         0.51302        -4.93635
   H       -5.42928         0.98454        -3.92444
   H       -5.01593        -4.26494        -2.28836
   H       -6.19698        -5.04165        -3.33574
   H       -4.97286        -3.99186        -4.03764
*
