# ORCA input file
# SCF done       -155.244138860931          0.000239354729
! wb97x-d3 def2-SVP def2/J RIJCOSX Grid4 TightSCF
%maxcore 5000
%tddft
    Mode sTDA
    Ethresh 5.0
    maxcore 5000
end

%pal
  nprocs 6
  end
* xyz -1 2
   C        2.42203        -1.72759        -0.54372
   C        2.77148        -0.98572         0.61120
   C        1.97270         0.04209         1.10606
   C        0.80422         0.31452         0.43428
   C        0.44356        -0.43794        -0.70671
   C        1.24065        -1.46846        -1.19997
   C        3.47626        -2.77497        -0.85402
   C        4.41550        -2.59137         0.31028
   C        3.99558        -1.53329         1.10377
   C        5.59942        -3.16616         0.75340
   C        6.08162        -2.54121         1.89399
   S        5.05403        -1.22821         2.41804
   C       -0.23626         1.37914         0.73858
   C       -1.25391         1.10253        -0.33561
   C       -0.81701         0.06600        -1.15140
   C       -2.50364         1.58510        -0.70396
   C       -3.00697         0.92749        -1.81693
   S       -1.92517        -0.31244        -2.40343
   C        7.26754        -2.86825         2.59209
   C       -4.24487         1.18313        -2.45119
   C       -0.83192         1.21413         2.14576
   S       -4.78355         0.29794        -3.86145
   C       -6.23483         1.25986        -3.85102
   C       -6.16789         2.15530        -2.78358
   N       -5.08269         2.10596        -2.02970
   S        7.83100        -1.95391         3.97399
   C        9.20060        -3.02508         4.06338
   C        9.09569        -3.96826         3.04104
   N        8.04367        -3.87236         2.24571
   C       -7.32606         1.19010        -4.73846
   C       10.26664        -2.99297         4.98325
   C       10.51113        -2.12294         6.00082
   C        9.73052        -0.96884         6.41624
   N       10.34377        -0.32840         7.47824
   C       11.50187        -0.85829         7.94766
   S       11.93360        -2.28495         7.01737
   O        8.68885        -0.57318         5.92937
   C        9.73723         0.84646         8.07444
   C        8.90271         0.47843         9.29441
   S       12.38447        -0.26606         9.18489
   C       -7.52457         0.37463        -5.80987
   C       -6.64852        -0.65702        -6.34069
   N       -7.22394        -1.25663        -7.44672
   C       -8.44926        -0.81845        -7.83280
   S       -8.99094         0.47207        -6.77078
   S       -9.30507        -1.38583        -9.10019
   C       -6.54259        -2.33912        -8.13042
   C       -7.01408        -3.69501        -7.62068
   O       -5.55496        -0.98058        -5.91843
   C       -1.39320        -0.18300         2.38368
   C        0.43256         2.76003         0.55914
   C       -0.51162         3.95134         0.64859
   C        2.88620        -4.19171        -0.90865
   C        4.27443        -2.43606        -2.13523
   C        3.47482        -2.40986        -3.43067
   C        2.22588        -4.59755         0.40393
   H        2.26875         0.58325         1.99174
   H        0.91528        -2.03862        -2.05582
   H        6.11650        -3.99408         0.30557
   H       -3.06472         2.35956        -0.21548
   H       -0.05403         1.42426         2.88229
   H       -1.63143         1.94390         2.27688
   H       -6.93929         2.86822        -2.54921
   H        9.81480        -4.75053         2.87019
   H       -8.11829         1.89770        -4.52061
   H       10.99589        -3.78287         4.84162
   H       10.53838         1.53483         8.35322
   H        9.10724         1.29431         7.30226
   H        9.53010         0.02622        10.05879
   H        8.44501         1.37398         9.70403
   H        8.11748        -0.22106         9.01697
   H       -6.74321        -2.24174        -9.19977
   H       -5.47608        -2.20710        -7.93341
   H       -8.08036        -3.81483        -7.79739
   H       -6.48337        -4.48423        -8.14483
   H       -6.81613        -3.78696        -6.55521
   H       -0.61396        -0.93533         2.28368
   H       -1.81116        -0.25145         3.38517
   H       -2.18084        -0.40721         1.66789
   H        1.20991         2.85711         1.31980
   H        0.92306         2.77050        -0.41765
   H       -1.00165         3.99729         1.61719
   H        0.05429         4.87047         0.51378
   H       -1.26970         3.90371        -0.12796
   H        2.14564        -4.23764        -1.70760
   H        3.68743        -4.89439        -1.14594
   H        4.73917        -1.45736        -1.99057
   H        5.07646        -3.17229        -2.22366
   H        2.72646        -1.62277        -3.41040
   H        4.14825        -2.21271        -4.26197
   H        2.98440        -3.36175        -3.61471
   H        1.43096        -3.90172         0.66397
   H        1.79651        -5.59248         0.31404
   H        2.95121        -4.60896         1.21413
*
