# ORCA input file
# SCF done       -166.769109935944          0.000675297763
! wb97x-d3 def2-SVP def2/J RIJCOSX Grid4 TightSCF
%maxcore 5000
%tddft
    Mode sTDA
    Ethresh 5.0
    maxcore 5000
end

%pal
  nprocs 6
  end
* xyz -1 2
   C        3.17674         1.28498        -0.07872
   C        2.99388        -0.11919        -0.04902
   C        1.75442        -0.64119         0.24087
   C        0.70546         0.25648         0.43087
   C        0.87992         1.66130         0.35893
   C        2.13193         2.18341         0.13380
   C       -0.66624         0.02098         0.74476
   C       -1.35386         1.22739         0.87285
   C       -0.43125         2.38585         0.59844
   C        4.55685         1.53025        -0.34405
   C        5.24492         0.32051        -0.47625
   C        4.30446        -0.84665        -0.30504
   S       -1.66652        -1.33583         1.00013
   C       -3.05689        -0.27500         1.26924
   C       -2.69508         1.06700         1.16486
   S        5.53158         2.91104        -0.58388
   C        6.91294         1.87261        -0.89923
   C        6.56970         0.51418        -0.79833
   C       -0.34909         3.35100         1.79141
   C       -0.95337         3.09299        -0.67479
   C       -0.07939         4.21525        -1.21766
   C        0.02046         2.64435         3.09068
   C        4.29362        -1.63685        -1.63157
   C        4.64595        -1.70238         0.93055
   C        3.35730        -2.83636        -1.68729
   C        5.98340        -2.42723         0.86283
   C        8.20607         2.27966        -1.24662
   C       -4.27280        -0.92281         1.53754
   C       -5.54898        -0.44643         1.70863
   C        8.73144         3.53444        -1.43950
   C        8.00837         4.80067        -1.28700
   C        8.97651         5.86348        -1.62388
   C       10.21154         5.28057        -1.95615
   C       10.09278         3.82667        -1.84456
   C       -6.04265         0.93996         1.57384
   C       -7.51430         0.85003         1.68423
   C       -7.89428        -0.48133         1.91543
   C       -6.69001        -1.30670         1.98008
   C        8.78448         7.22921        -1.64093
   C        9.85422         8.03926        -2.00170
   C       11.08740         7.46941        -2.33576
   C       11.27554         6.09117        -2.31515
   C       -8.44016         1.86765         1.58054
   C       -9.78591         1.54775         1.70594
   C      -10.17587         0.22293         1.93096
   C       -9.23755        -0.79781         2.03865
   O        6.84924         4.96383        -0.95251
   O       -5.41687         1.96567         1.40056
   C       -6.67718        -2.64167         2.29102
   C       11.10355         2.93376        -2.09094
   C       11.01183         1.52972        -1.98877
   C       12.40584         3.30342        -2.49063
   C       -5.53689        -3.46151         2.43403
   C       -7.83797        -3.40294         2.54952
   N       11.02598         0.38241        -1.92954
   N       13.48111         3.53046        -2.82154
   N       -8.73439        -4.08529         2.76868
   N       -4.67521        -4.20694         2.58092
  Cl       12.40128         8.48093        -2.78270
  Cl        9.65772         9.74455        -2.03785
  Cl      -10.97194         2.78306         1.58144
  Cl      -11.84328        -0.16188         2.07710
   H        1.57575        -1.70063         0.33471
   H        2.32807         3.24378         0.13046
   H       -3.40560         1.86051         1.30167
   H        7.29528        -0.25866        -0.98000
   H        0.39838         4.11548         1.57849
   H       -1.31708         3.84196         1.90683
   H       -1.07545         2.33560        -1.45369
   H       -1.94395         3.48932        -0.44209
   H        0.88194         3.83564        -1.55237
   H       -0.57594         4.67165        -2.07102
   H        0.08397         4.98868        -0.47248
   H        0.97950         2.13916         2.99542
   H        0.09204         3.36703         3.89975
   H       -0.73205         1.90621         3.35861
   H        4.02048        -0.93889        -2.42768
   H        5.31417        -1.96907        -1.82803
   H        4.64454        -1.03993         1.80038
   H        3.84684        -2.43031         1.07603
   H        2.31874        -2.52637        -1.61643
   H        3.48921        -3.34762        -2.63843
   H        3.57062        -3.54581        -0.89266
   H        6.02131        -3.11359         0.02162
   H        6.80455        -1.72124         0.77827
   H        6.12749        -3.00314         1.77423
   H        8.88135         1.44623        -1.39818
   H       -4.16716        -1.99991         1.59290
   H        7.82778         7.65414        -1.38147
   H       12.24049         5.69122        -2.57936
   H       -8.12327         2.88362         1.40553
   H       -9.57885        -1.80519         2.20999
*
