314
 SCF done       -585.710044129510          0.000663242172
C          12.28890583631535   -2.94607690187143  -10.12885505947635
C          12.08677949844208   -2.33069356437998  -11.37719660382619
C          12.36595994158090   -0.95551404531751  -11.54710102885989
C          12.84538444343279   -0.13800754197365  -10.52650702870474
C          13.00985106951582   -0.74638945278916   -9.26701189502063
C          12.72245570752496   -2.12297331570449   -9.09656788740930
C          11.60180575647066   -2.92238161382933  -12.58103659338383
C          11.54899021898956   -2.05353776239184  -13.61008505136430
S          12.06952457663597   -0.45776371876715  -13.19311238371887
C          13.43700817429118   -0.14803451377395   -8.05680612210370
C          13.50769813025803   -1.01661747342573   -7.00759908217082
S          13.02932149643762   -2.63950286930376   -7.45992805093600
C          12.07951579653895   -4.36970103355799   -9.94799880226326
C          13.16640739141370    1.25384383341776  -10.76660987828283
C          12.47700086915440   -5.38962043266997  -10.76485737278223
C          12.12299660190448   -6.66395167893119  -10.27758425755412
C          11.44691567390166   -6.62322721571166   -9.09766906478936
S          11.24542334033929   -4.99052847519527   -8.55203165104738
C          12.48884285265836    2.15483720437522  -11.54001851191777
C          13.09891216825266    3.42350620973311  -11.58490390153240
C          14.25235051578495    3.49778895716584  -10.86637505431197
S          14.60102682451922    1.98530281014666  -10.09898223417312
C          10.94712914401394   -7.75818214936038   -8.27219219973321
C          11.80129007613926   -7.94433654307596   -7.01644924420406
C          15.14138371772810    4.67306072479783  -10.64916196521968
C          14.97820293211778    5.23619228424161   -9.23547150957143
C          13.91541162822749   -0.72452322367904   -5.67588570385554
S          14.47928355180096    0.85963012575739   -5.25698786541351
C          14.76819872256932    0.37015038406954   -3.61117561699190
C          14.41106994593976   -0.94907309679742   -3.42757795966928
C          13.93551221546512   -1.56479127434094   -4.58399631494217
C          15.32412427639093    1.27171362697161   -2.64365765490402
C          15.29091274548780    2.65177395978509   -2.79064414922192
C          15.85857691327870    3.53001717617013   -1.86751528904038
C          16.47158088916810    3.10899277855462   -0.69398586170299
C          16.45061091182540    1.69962352617834   -0.46618366633966
C          15.98644282210913    0.79666372402888   -1.47257846935131
N          16.77134946118329    1.19585461852725    0.72767997930777
C          16.85433757651797   -0.10051449751150    0.91472092667174
C          16.80970983219940   -0.96159198290793   -0.23171730814806
N          16.28655422323810   -0.49712351822269   -1.34176080845690
F          14.70370718443111    3.20125464810482   -3.86951100512767
F          15.79043246448007    4.84161494069428   -2.16111548399377
C          17.09007051588554    4.01595557375765    0.22857858849375
C          17.35806446243558   -2.31534425746158   -0.26301868152237
C          16.93592038516982   -0.58054605091862    2.29218539271575
C          16.85247834355689   -3.25335593209629   -1.16421126704310
C          17.37536374319336   -4.52248207776854   -1.19526431857180
C          18.42930749452453   -4.94955852251840   -0.36586444880914
C          18.92988198826502   -3.97173439015007    0.49962109012993
C          18.41725733784212   -2.69098214737771    0.55667443613928
C          16.41500295815213   -1.81713482202804    2.65925331688193
C          16.49257227916808   -2.25230962228320    3.96709795884361
C          17.08727554792709   -1.49587808949888    4.98213232431635
C          17.57732921471178   -0.24087373051787    4.57531327696408
C          17.50461784299297    0.21972594303647    3.28363967064453
S          16.77680103225592    5.72843309773075    0.18386660876681
C          18.43977978796190    4.83231838317181    1.93215529640079
C          18.00413481848219    3.71807685282842    1.21851506909673
F          15.95594294880292   -3.46859061920922    4.23455315245264
F          19.96280995013415   -4.24936195114450    1.33349231002971
C          17.86914074006109    6.01014346449202    1.49941005009737
O          18.82166550756953   -6.22419485263399   -0.51260517312300
C          19.87727679608714   -6.76120623097394    0.27355693480161
C          20.04675754617691   -8.21203750544286   -0.14367030192653
F          16.86289487791626   -5.41739248414145   -2.05842766077170
F          18.14727471764306    0.53698467947637    5.51284915841537
O          17.24464634330571   -1.80418264311672    6.27852204861136
C          16.79802587670075   -3.05170032990361    6.79363649013483
C          17.15898763405160   -3.07780735574273    8.26897762858211
C          17.66227982360850   10.98953349168857    1.87097197602355
C          18.02909724740088    9.65365020256919    2.13342821764484
C          18.99121922922661    9.35595749382700    3.12983152412548
C          19.62986751903203   10.32903331015100    3.89047611807632
C          19.30552268673422   11.66656843706551    3.58362030745079
C          18.34167533112297   11.96503390002013    2.58860058640677
C          17.56410861482664    8.48725268925719    1.48251868310318
C          18.10691137820398    7.33223288171215    1.96698517322149
S          19.23844905624743    7.63468981187635    3.27085373859266
C          19.86663665693981   12.83990582190963    4.13415061790687
C          19.35414797872320   13.99550872419420    3.61685719061097
S          18.12236815982866   13.68621843102782    2.41181535807948
C          16.62838697486853   11.30374883032361    0.90669814330765
C          20.56410610648922    9.97710739212633    4.93996193511814
C          15.42771330026312   10.67680472870060    0.72290513907724
C          14.65426007173797   11.24510046456703   -0.30814851002938
C          15.26075669558738   12.29702531518016   -0.92270511037642
S          16.81035731432278   12.62037872628516   -0.21819608339767
C          21.50173977982258    8.98350024146864    4.94125028930802
C          22.21017858336259    8.88477747751955    6.15428565589542
C          21.81189660790210    9.78508127549987    7.09341189087005
S          20.54947832923200   10.79887972070929    6.47714544634409
C          14.74338409601016   13.15345096117283   -2.02631804687404
C          14.38246662637630   14.55136705754009   -1.52007056440597
C          22.29557081893940    9.94549864081850    8.49460668508442
C          22.85119048887518   11.34309914169669    8.76706265925829
C          19.76699689652214   15.31828086099227    3.93253195976350
S          21.07388334613905   15.56412176555398    5.04897375241320
C          21.01827560396320   17.28320684353652    4.81386381086910
C          20.01955723677472   17.61891164648748    3.91930681119333
C          19.32469171287087   16.51828366908572    3.41959341809345
C          21.94638767418443   18.11461174930134    5.51648515435382
C          21.91196942958576   19.50393493822595    5.51411990507553
C          22.85386146974884   20.28557317103084    6.18376982872929
C          23.87514142981902   19.75783150251920    6.96611091846251
C          23.87984087163461   18.33485319508303    7.07751545286842
C          23.00813492821346   17.53710233680361    6.27674908298401
N          24.60547549387299   17.71443336925172    8.00984754862371
C          24.66799116113375   16.40427333593412    8.06206885559968
C          24.13709650402777   15.64318136500691    6.96611217047569
N          23.25395461877987   16.23064170360468    6.18984255734859
F          20.95876554021993   20.16547460523694    4.83302422672875
F          22.73296433860455   21.61949123124311    6.04917056738652
C          24.85251457679167   20.57168117958649    7.62668688795278
C          24.55961399175185   14.28939384689445    6.61679278431944
C          25.22120999786938   15.81498562886846    9.27992764701946
C          23.75542665973987   13.50235789048922    5.78969463986068
C          24.15303315516740   12.23720472246044    5.43913816670066
C          25.35536996851454   11.65179080633035    5.87890109288348
C          26.15310800219651   12.48275551614053    6.67286569061574
C          25.78127098636411   13.76442763518689    7.02951453753849
C          24.76657614103389   14.59109018975477    9.76037549869646
C          25.28007895655148   14.06238015825579   10.92780190238392
C          26.26651781857251   14.70613370955645   11.68175269286774
C          26.68120124567303   15.95158667167098   11.17410427932277
C          26.18018381408843   16.50538128973659   10.02164541893790
S          24.64171857242711   22.28809650257117    7.83145254257763
C          26.80063651089060   21.20296242992340    8.71963644575114
C          26.06202989197891   20.16659762727286    8.15424374704436
F          24.77652116462784   12.86736346843356   11.32682198099939
F          27.35632178482745   12.05188295669191    7.12814142938374
C          26.17262132175782   22.42720747799635    8.63254137061938
O          25.58351762608635   10.39160352700980    5.48166508444848
C          26.73892760473877    9.68453528916698    5.91174539492010
C          26.63848611117411    8.28203666132566    5.33685654596067
F          23.36423191677139   11.50733253717620    4.63282868863277
F          27.61927708846025   16.62278295645921   11.86509596235585
O          26.85835318464615   14.30054824770425   12.81542878476743
C          26.52527943031354   13.05397119181792   13.41168672722354
C          27.39437578300182   12.90865472081513   14.64909277257376
C          26.41151019998562   27.34485704858497    9.51570579383972
C          26.77196116820769   25.98265997212662    9.48011897115261
C          28.01958458189626   25.56112955372597   10.00142245040177
C          28.95079045850415   26.43134441485486   10.55780889837921
C          28.61221830578262   27.80021049911072   10.54327817041021
C          27.36277402045141   28.22072862066821   10.02340902405421
C          26.02860116020975   24.90265801974025    8.94799659526621
C          26.64529949339015   23.69209131734050    9.07929940671006
S          28.20257270330775   23.83103752377083    9.87220743539444
C          29.39305733715588   28.89634802586725   10.98025425174149
C          28.77461736646426   30.10458851444290   10.83743120117713
S          27.17531724244225   29.94933553735919   10.14076937239683
C          25.10917682804271   27.78517245132473    9.05994236572018
C          30.19024442434743   25.94381964410186   11.12716007999445
C          23.89498150261619   27.19898668234249    9.28574184875359
C          22.82118089558441   27.89907772823675    8.70183814014812
C          23.20709730004865   29.01196821524498    8.02032051851833
S          24.92450559041371   29.22771260217219    8.10298842604384
C          30.99675024002395   24.94195345791471   10.66371875979554
C          32.11261911417544   24.69673551961637   11.48722360460119
C          32.15835982333355   25.49123676471196   12.59128578067882
S          30.81382622839703   26.58148375280370   12.62480791474729
C          22.35887780643946   30.00772346221154    7.30787398031466
C          22.27856145875824   31.32196823857911    8.08730731378774
C          33.19730725602832   25.54602161098041   13.65720665437499
C          34.06952563784731   26.79553466366238   13.51545123719409
C          29.29027843161482   31.38800980616639   11.16969792042205
S          30.86149896376991   31.56201458308852   11.88086149541878
C          30.69081019901791   33.29335312171066   11.94104461326942
C          29.47648751945075   33.68072118489000   11.41361448319587
C          28.69017637441580   32.61470980565625   10.98280170375354
C          31.71705203170399   34.14503841461717   12.47085365009392
C          33.04009212735988   33.74865546835240   12.60580293832438
C          34.04093386529906   34.58864483870117   13.10229366734271
C          33.80940218844868   35.90707255111245   13.46178705339604
C          32.47232371338364   36.36761515295065   13.28796666782690
C          31.42625671466372   35.47237177449335   12.90722066560970
N          32.18463428432720   37.66868459489025   13.37317687926631
C          30.94438585021637   38.09128741960603   13.31571279069938
C          29.88825235594360   37.12095157781663   13.38145769125617
N          30.16526285512680   35.87566428808396   13.07427380212336
F          33.40898041467019   32.50349037341260   12.25444765440081
F          35.27477540299536   34.06572760153151   13.21634705333716
C          34.83691044679991   36.78190257579567   13.96311592892989
C          28.52825241763813   37.41503371920179   13.82533516106007
C          30.73392874266397   39.52513213764423   13.13394523955033
C          27.46672231671671   36.61242509533670   13.40451520832843
C          26.19184372145800   36.88492599144254   13.83533489579425
C          25.87604266582246   37.93994429062631   14.71213498650636
C          26.97046082889995   38.70121533867007   15.13496070826959
C          28.26082010587674   38.45433645596467   14.71048593249791
C          29.60898908713900   40.02019155698681   12.48265823375238
C          29.44153431736633   41.37918202013863   12.30575047796696
C          30.37027870154732   42.32147044845507   12.75936601696539
C          31.50553426601784   41.77842469595455   13.39014997201330
C          31.70062934686176   40.43161147164221   13.57176640235832
S          36.52242396265816   36.52464638035405   13.61329184295171
C          35.87889003899272   38.54947108838613   15.04405581154530
C          34.67087629955066   37.90121574928155   14.74246775700945
F          28.31736196161607   41.77281978923756   11.65775997794948
F          26.80305128959713   39.73233852231365   15.99970147354904
C          36.95696609064395   37.92533275670777   14.49466092201025
O          24.58110859668580   38.07708562100580   15.03464061972700
C          24.14970404623822   39.10708614835264   15.91444222608264
C          22.64233044841119   38.97386485194634   16.04773587503674
F          25.17945593893057   36.11123645591150   13.40558071956923
F          32.44003175415725   42.63815881210544   13.83375968629036
O          30.32449267314565   43.65910987047273   12.66710023477841
C          29.22165787863698   44.31421683161462   12.05405670733148
C          29.48907094667189   45.80712794544397   12.13973467222403
H          11.29187741508191   -3.94875406155460  -12.65099984858998
H          11.22118005790486   -2.23859446003090  -14.61436537276287
H          13.67479154209637    0.89447351290846   -7.94922622862951
H          13.04339548015016   -5.23382600224222  -11.66593521996282
H          12.36294572086757   -7.58001785053066  -10.78831226829572
H          11.56031104874923    1.92906892594261  -12.03231924944330
H          12.69485491592850    4.25375171359518  -12.13677944127372
H          10.97193996322351   -8.66906080455339   -8.87424986416782
H           9.91192624525861   -7.57082282906077   -7.97615996650663
H          12.83473987612743   -8.14644853878681   -7.28859595634084
H          11.42737743367336   -8.77617042599077   -6.42477411716497
H          11.77535508254189   -7.04321718663574   -6.40806569989794
H          14.89233601519388    5.44207790846156  -11.38357603509186
H          16.18351107059799    4.37997893095041  -10.79927287344618
H          13.94887259243460    5.54486528909421   -9.06764493801000
H          15.62693022554319    6.09706672186648   -9.09515391388741
H          15.23673246240882    4.48186426602311   -8.49579938346392
H          14.47689337017508   -1.43234553117933   -2.47156640443695
H          13.61041330914889   -2.58881656955498   -4.63632855572763
H          16.05541970026992   -2.98878124420044   -1.83816703159970
H          18.87348930725050   -1.99317405475421    1.24036372811572
H          15.92657584660114   -2.45576958762962    1.94081474380396
H          17.88870116916927    1.19696201241639    3.04480224438036
H          19.15466166208234    4.79751002626549    2.73507932730003
H          18.35515125774787    2.71846409006306    1.38913452808807
H          19.62434670453273   -6.69585933092406    1.33830482930350
H          20.80263431745548   -6.20132502571618    0.09486642722536
H          19.12465350295681   -8.75954973806867    0.03039847219793
H          20.84785251489426   -8.66737647413126    0.43081102827421
H          20.28735545849847   -8.26860937821123   -1.20159871874530
H          17.29133414384292   -3.87558366916627    6.26470344836321
H          15.71368881609511   -3.14652466931436    6.66322070721828
H          18.23382551312114   -2.97614755590329    8.39110454731741
H          16.83569072438290   -4.01675253754857    8.70845720491361
H          16.67335930730534   -2.25440988093057    8.78522337719496
H          16.87426816710841    8.49747810230101    0.65804014819226
H          20.64577072451151   12.83824554294953    4.87331556023431
H          15.09037583387485    9.86036039027844    1.33632900448514
H          13.68075917394110   10.88135836403662   -0.58595164652966
H          21.70870566185213    8.36720922901905    4.08571015361214
H          22.98941798597762    8.16314737821551    6.32442605328082
H          13.86035958482343   12.67632633228616   -2.45660367423697
H          15.50079860109215   13.24168241055858   -2.80931101156928
H          13.61754774552896   14.48857647855150   -0.74932732999850
H          14.00580762618047   15.16315368352068   -2.33598928798172
H          15.25983864494240   15.03513001555677   -1.09679535134007
H          23.06798978671910    9.19669094216442    8.68371855708800
H          21.46749633051306    9.75581174814344    9.18431743859089
H          23.72009123356761   11.53609187630436    8.14114055166991
H          23.14583097058121   11.43215416817941    9.80957526052167
H          22.09559329835847   12.09551602001413    8.54909015159211
H          19.80339187088201   18.62804134960848    3.62274214038355
H          18.52518215964412   16.58581040207067    2.70309525027474
H          22.82207558174911   13.88794327440879    5.42135186562823
H          26.47351425306510   14.34069743769401    7.62161678905654
H          23.99784107892493   14.03739678932428    9.24571134944695
H          26.53309454764844   17.46996494605469    9.69833775787130
H          27.76733060069305   21.08079067849761    9.17530831051788
H          26.39447609488163   19.14762953351110    8.10273746521831
H          26.77185086019189    9.64875646412342    7.00719260052681
H          27.64459126056248   10.18329546548954    5.54767922818345
H          25.73804202873584    7.79412665276274    5.69938077239501
H          27.50545569189906    7.69994896624668    5.63462382081635
H          26.59225240423731    8.32787376014276    4.25244949765381
H          26.72073206732282   12.23603380437695   12.70829678495717
H          25.46388777410708   13.03907486621396   13.68570398693103
H          28.44438143308908   12.92785779469951   14.37073183711977
H          27.17224385146470   11.96853373815763   15.14504016077930
H          27.20412561319344   13.72945471490222   15.33490256725896
H          25.07971034673834   25.01506028460043    8.45534851591353
H          30.38963304854127   28.80991214365151   11.37321933324453
H          23.77011282549473   26.31766353222286    9.88923932008915
H          21.79601030715649   27.58348189299137    8.78315796587935
H          30.81918590165042   24.42124401216963    9.74022949403174
H          32.85623779169054   23.95112542781992   11.26779080791242
H          21.35748330884827   29.59081299195977    7.18188023566823
H          22.77559153573855   30.20445329324743    6.31694261863522
H          21.85426911930614   31.15110878019640    9.07410051419456
H          21.65391540592347   32.03738750744110    7.55836242322798
H          23.27196615249920   31.74791164625980    8.20843166059690
H          33.81981082273433   24.65147826903263   13.58672616476178
H          32.71799051419108   25.55386942528262   14.63939259183475
H          34.56735820741200   26.80196984592219   12.54845570240926
H          34.82552672457359   26.81827552463450   14.29618883691035
H          33.46010028377263   27.69289909584252   13.59521526367747
H          29.19189474270177   34.71193703832103   11.32630172134874
H          27.71495897590320   32.71955240721272   10.54123108964568
H          27.64054722550166   35.77842496586615   12.74569407001009
H          29.04976028724061   39.07837018150124   15.09871644303597
H          28.85309671548722   39.36066628229096   12.08742607432329
H          32.59988701258631   40.07976662766846   14.04881842596542
H          35.94676944427437   39.43995136333454   15.64283289929000
H          33.71049961527611   38.22009989482068   15.10079526574812
H          37.98985451196378   38.20422536471132   14.56222673229029
H          24.41251952410608   40.08852180340769   15.50267452582851
H          24.63162026670823   38.99334221443794   16.89248777516889
H          22.17179194179158   39.08026676315144   15.07428636302545
H          22.26410780556960   39.74287838867540   16.71458109376909
H          22.38962499823608   37.99612335653968   16.44829533189373
H          28.29368356828284   44.06073666519406   12.57986947883225
H          29.13188469181589   44.00115827375127   11.00734531471086
H          29.58279114685243   46.10947509729547   13.17903732121658
H          28.67039358016975   46.35282778346957   11.68028227175008
H          30.41463716123028   46.04907421553225   11.62490142739320
