167
 SCF done       -299.201766950897          0.000691385924
C          -1.98755183544337    6.11338891423019    6.30463863734525
C          -1.13836188651839    6.84808573702079    7.17492563037258
C           0.21608946724152    7.01585465151334    6.91342290536883
C           0.71190251581822    6.40822681107975    5.74161682432353
C          -0.14427973185000    5.69916415667468    4.87181932889513
C          -1.49648427355732    5.54379363844853    5.12334326576545
C          -3.32532119380719    6.03451753085687    6.79650262685714
C          -3.50113837457122    6.68170127589624    7.96336410908204
S          -2.06127819448587    7.43107803126822    8.55318841843170
C           2.04934757808628    6.42268614351638    5.27588078907681
C           2.22311170239093    5.75606411722314    4.09826737373691
S           0.71986976272318    5.06871521246862    3.49990412813675
O           1.14468154701892    7.68740602269818    7.63229524385056
O          -2.29593490859059    4.81449456315406    4.27477372622351
C           3.42894058996549    5.58451777106944    3.36232628060545
C           3.60482261113510    4.97363240877305    2.14129205722150
C           4.92764912758584    4.99091885277705    1.69584560344612
C           5.79516961727666    5.60780376683213    2.56914874334560
S           4.93943376376077    6.18397910555142    3.97737478851234
C           7.20815816755319    5.80743273538903    2.44253725008148
C           7.96819298681492    6.35804932617492    3.46476474393081
C           9.33807074838955    6.57020147993747    3.36240779809944
C          10.06898177932693    6.26329940102701    2.22371330676900
C           9.33520829535273    5.69413978593373    1.14842708652162
C           7.91617446978708    5.45971656843573    1.26008270520350
N           9.80780625416666    5.30726818200721   -0.03478835086128
S           8.60181500518025    4.71282067462865   -0.91574488116162
N           7.41794586204629    4.91413068016137    0.15264888318137
C          11.47791801526418    6.51133480141828    2.13456417096630
C          12.30581814702826    6.40158659883293    1.04031468216724
C          13.63233999343990    6.74602089021906    1.30672953454557
C          13.84986650468002    7.11628507241010    2.61422197092516
S          12.37499265300875    7.04684200208535    3.53164104286789
C          -3.16191762265260    5.57740458605822    3.44696753886110
C          -2.41278309990668    6.36754116572761    2.37995110009143
C           0.79972899412701    8.36502606297612    8.82539823167386
C           2.06214442324122    9.03858102093488    9.34052936278484
C          16.64791703433525    8.11831587419710    4.83558700123820
C          17.46264204595397    8.16854134491935    3.67005635905969
C          18.79825514628372    8.54211550152953    3.72114830718189
C          19.31960190241321    8.85457469898862    4.99518019487194
C          18.51386095914600    8.76248321324575    6.15126391210180
C          17.17955003982817    8.40206661966969    6.10249752978974
C          15.30683158552898    7.76336202590358    4.54614990612088
C          15.07152318152573    7.50932641570145    3.22844730637725
S          16.51562300845197    7.71275189753772    2.25992447692823
C          20.64255437952091    9.25504860524117    5.30010000988124
C          20.85835413232706    9.45128046597969    6.63362401830072
S          19.41094519916943    9.15938333056715    7.58742327748996
O          19.69169251934276    8.64644238091765    2.71006117497814
O          16.40876866544512    8.37805210507721    7.23945346901604
C          22.06670494620113    9.82826440505199    7.28351161060875
C          22.32736483169658    9.85292286671815    8.63512336921384
C          23.62970632522430   10.24776760096771    8.94354465861817
C          24.39063141958261   10.54932597029701    7.83654080627925
S          23.46282322168589   10.32531898506950    6.37521190219404
C          25.74746689718128   11.00831164528311    7.78532311991575
C          26.31928131638576   11.50645163902209    6.62351607690257
C          27.62284759963923   11.98843079737948    6.56626731223350
C          28.47693637227373   11.99299761900612    7.65953116480159
C          27.94582603221371   11.46364845906100    8.86676556006905
C          26.58606658814252   10.98817962876817    8.93250999080284
N          28.56616251461297   11.34799660235471   10.03927983045300
S          27.55320636864611   10.70775929929430   11.11127309323778
N          26.27642210416419   10.54495294670422   10.14914729151067
C          29.81072852262303   12.51379694181049    7.58846066274323
C          30.81260896527861   12.43509393671414    8.53001052346444
C          31.99369137902869   13.06877606806084    8.14446758169076
C          31.91936637748067   13.65671794914140    6.89975243483138
S          30.35592104445024   13.39862978958135    6.18925108081553
C          16.09983983922193    7.08718303504437    7.74639066463440
C          17.30970928241541    6.39435025962419    8.36288527628862
C          19.29900623796420    8.45061769779981    1.36510234282696
C          20.51890788653576    8.71378665610606    0.49626709741245
C          34.95603903998711   15.47195661257504    5.78168859827697
C          34.19379546506969   15.93464292192352    4.67297938749862
C          34.71270333768174   16.82715733624740    3.74468825893882
C          36.03629501667420   17.26825085173861    3.96115976752135
C          36.79386892892811   16.77959136697794    5.04832909276536
C          36.28726818933256   15.87575897376003    5.96345879426795
C          34.21177424901212   14.62714027026986    6.64119531728906
C          32.92737408682470   14.41277720289955    6.23429101565854
S          32.57834833925367   15.24360215488808    4.73511466727959
C          36.76392349032122   18.20298802159166    3.18585964174905
C          38.02693607854482   18.43139475603601    3.65139984190910
S          38.38592339920929   17.47742952875062    5.08386813580822
O          34.12051702920085   17.35038196224484    2.64642902451317
O          37.03998102247807   15.45235947506416    7.03292204734061
C          39.01227019439595   19.31844135468326    3.13600953294234
C          40.29100791782755   19.52294665893866    3.60373868806102
C          41.00199096080417   20.48120335180922    2.88057734318898
C          40.28423176274580   21.03434779249367    1.84409688385914
S          38.68468978811406   20.33831771790337    1.76722988940475
C          40.69207123384616   22.04564858167326    0.91378885162260
C          39.84604564913750   22.52515787679020   -0.07480922105660
C          40.21828487133754   23.51516045242042   -0.97926657663829
C          41.46860753072126   24.11284604155282   -0.97571304789358
C          42.37493321424942   23.65017307295017    0.01533629339881
C          41.99005517136126   22.62437289292000    0.95381279106693
N          43.62623590024332   24.05946230661344    0.21798166812247
S          44.25442178912782   23.24570131005065    1.45275819054861
N          42.97781670091643   22.33268579109425    1.79757092831891
C          41.82798694538913   25.14137877981059   -1.91281583047932
C          43.01047076645802   25.82796893210285   -2.02629460759749
C          43.00545099359763   26.77728632851867   -3.06358660482108
C          41.82529101278658   26.81439592869879   -3.73761278192500
S          40.68964314471129   25.68788330926390   -3.11850318240600
C          37.54661308177351   14.12870966310875    6.93699236823181
C          38.62195677856884   13.98531649421869    5.86606815549775
C          32.78252557268564   17.03028180508878    2.31541723754354
C          32.44164761367548   17.78305184570187    1.03890015085165
H          -4.10077333201321    5.48795090668188    6.29120066740008
H          -4.39784904430763    6.77488655895387    8.54402988452515
H           2.84755193830760    6.91308667509786    5.80270412457719
H           2.78847286498394    4.53405533838899    1.59577903725397
H           5.25952002655141    4.56881236624172    0.76556690128849
H           7.46963655907653    6.63463639152393    4.38239092485178
H           9.85813172689863    7.00229393390865    4.20516813778003
H          11.94362908655041    6.08170351883892    0.08112031582156
H          14.42111609626715    6.72532201573089    0.57517167210088
H          -3.76893513088917    6.26109020016828    4.05572620310024
H          -3.81709568128114    4.83579765326824    2.98358137152934
H          -1.78006648713743    7.12392770232825    2.84041436664806
H          -3.12439382166770    6.85923094306203    1.72229606175373
H          -1.78576246297016    5.70043097007753    1.79391928671515
H           0.41887090430026    7.65426498061118    9.56925105063287
H           0.02506167659417    9.11570939260902    8.62560611892618
H           2.82840321376992    8.29289360935097    9.53369939071179
H           1.84317668881706    9.57345757723920   10.25970365505015
H           2.43851797714007    9.73854670233185    8.59953953804248
H          14.53470346243110    7.71641898116638    5.29344424467907
H          21.40417601443224    9.38068206179477    4.55219365970243
H          21.58715221839061    9.58399047041303    9.36787808736539
H          24.02019787640214   10.31930205133480    9.94148480218968
H          25.71739424731130   11.53310161564501    5.72673737546847
H          27.98913036978372   12.37872547122453    5.62757291483767
H          30.67497251315784   11.93151167318135    9.46858245704716
H          32.87413251110523   13.10985998178267    8.75944269354833
H          15.67393913737777    6.45630955684387    6.95499595881900
H          15.33621492570653    7.26939154467050    8.50632422133743
H          18.06188680420076    6.19398166768826    7.60241992787951
H          17.00381289180045    5.45244308381198    8.81013108619243
H          17.75063120266547    7.02751848230545    9.12857786905420
H          18.49011503879886    9.14328957454270    1.10204458289980
H          18.94507442629000    7.42249528271719    1.21813690104182
H          20.86884045660086    9.73137535251928    0.64644453436758
H          20.26135119399702    8.57425000775483   -0.54930454464175
H          21.31916564833806    8.02891180081649    0.76271500176720
H          34.62070342495245   14.22206756789698    7.54840193564665
H          36.35565054495513   18.69010078459134    2.31907534478307
H          40.68603179552141   18.98720401895386    4.44884773629461
H          42.01183122380779   20.77671257325040    3.09591846918493
H          38.85006408463259   22.11193748884219   -0.14235224071108
H          39.49746091582804   23.83545140335548   -1.71761729399790
H          43.84601040702437   25.64426810248498   -1.37728134047395
H          43.84421409035757   27.40787812048857   -3.29917563545457
H          41.54699505285422   27.43711111696547   -4.56464243344774
H          36.73065542742413   13.42014970398551    6.74014856142294
H          37.96389139934230   13.92631867909785    7.92630172510242
H          38.20245642710805   14.16990638316415    4.87898652255330
H          39.03034928988730   12.97867940549501    5.89049056593301
H          39.42154632750088   14.70025911923044    6.04242714927916
H          32.10800909153588   17.33469331236080    3.12511993367480
H          32.67846695979418   15.94959631484922    2.15689924045014
H          32.54896883513070   18.85235986188676    1.19869375547225
H          31.41851352100126   17.56550115111019    0.74766773867873
H          33.11343584354609   17.48281404845262    0.23947202060556
