88
 SCF done       -146.384239478693          0.000357402356
C           0.40170293109626    1.28536135613058    0.70894348659414
C           1.55428952103262    0.55469519877322    0.79291183580949
C           1.57311584851899   -0.83052701426177    0.56842677843117
C           0.42067224633667   -1.54643475921428    0.28472177705597
C          -0.79813445121609   -0.80453308299111    0.25124837693502
C          -0.79156324021038    0.60892958203545    0.40701241826911
N          -1.96952793792618   -1.45034343087612    0.16736768193931
C          -3.09240537035363   -0.76781318076121    0.11942591999074
C          -3.04162681252441    0.66339571066248   -0.03233126240289
N          -1.92018231216684    1.30441037699833    0.18769519744824
F           2.71824379181610    1.16845788400825    1.07073839886462
F           2.77204280811544   -1.44303040930106    0.62042462850505
C           1.38390519710215   -3.90035793000047    0.31661789866821
C           1.04886403304083   -5.18900672273815   -0.10812322845513
C          -0.16257456129731   -5.25287714113613   -0.75234886862872
S          -0.92911735157588   -3.69454217483867   -0.78006908320061
C           0.41802909153296   -2.96271778429025    0.03094682646195
C          -4.34773749201260   -1.48952062756903    0.29940067876760
C          -4.46142358980203   -2.80796895242506   -0.13729926552918
C          -5.62999025210748   -3.53727841176347    0.01713318215509
C          -6.73892501075803   -2.91950779423778    0.63268374535708
C          -6.59509123287413   -1.61601734047424    1.11012240148555
C          -5.42810842565939   -0.90469546395752    0.95719464607564
C          -4.18727134360036    1.46745251329817   -0.45409634685600
C          -4.32691903231614    2.76864382095666    0.01426347634239
C          -5.40633577273705    3.53446628877749   -0.37831222963517
C          -6.36785562097546    3.04654317057668   -1.25783911088436
C          -6.20970051432688    1.74254002622113   -1.77488036395611
C          -5.12568807684594    0.98124213236772   -1.35853080732148
O          -7.46444939849845    3.76689347448124   -1.64166316805600
C          -7.61843207890013    5.09605398076025   -1.18544230827363
C          -8.89460159310091    5.64416189447427   -1.80565274709572
O          -7.02826277773782    1.10204959038247   -2.65041261560501
C          -8.04514018790511    1.78332252863648   -3.36568850644142
C          -8.60225724689758    0.80278783159641   -4.38700433393460
O          -7.96700352612982   -3.44974153136245    0.84764562772422
C          -8.34653503048447   -4.72058948504681    0.34608795198851
C          -9.83212012868419   -4.88459531100983    0.63132789933924
O          -5.77374541291882   -4.83104510423618   -0.41836491539956
C          -4.62351659412500   -5.61008830679324   -0.68493883329387
C          -3.82183070823746   -5.93335336818464    0.57024393850659
C          -0.80384586816349   -6.41210386015174   -1.33055175476757
C          -0.54239081650736   -7.69729501505545   -0.84633850962504
C          -1.17750556827464   -8.79319423460297   -1.38393397211727
C          -2.09790836810227   -8.65912540334173   -2.42797884179552
C          -2.34376205689592   -7.37430480361304   -2.92382951931089
C          -1.70979826214418   -6.27773131187305   -2.38557937789556
C          -2.77097137878855   -9.81739755406085   -2.97147673608937
S          -2.39260124133842  -11.41931727359230   -2.39626168164649
C          -3.53523291701785  -12.12345949988566   -3.46377822218813
C          -4.17221348266121  -11.19057699746595   -4.21755872420597
C          -3.73947430906288   -9.88022938379030   -3.93930789702468
H           0.40174575201075    2.35332268549480    0.84554315452471
H           2.30222892759286   -3.67335622626223    0.82494209637875
H           1.69674756391160   -6.03723485059237    0.02241043750464
H          -3.60281383467267   -3.24500200996634   -0.61838738255552
H          -7.44456692215367   -1.18114705175618    1.61232351614527
H          -5.35034242256988    0.09123442372542    1.36292417153857
H          -3.59472982051188    3.16624148497750    0.69797372010052
H          -5.50129020209736    4.53256055044894    0.01791269270787
H          -5.03171956682001   -0.00785351252400   -1.77754034829208
H          -6.75634729156923    5.70419477875561   -1.49207370617544
H          -7.69314857829999    5.11445135726292   -0.08939516729865
H          -8.82192110305394    5.62140595430487   -2.88957617260628
H          -9.05193697850123    6.66825592520671   -1.48005143205491
H          -9.74479557418475    5.03919356033030   -1.50288474591215
H          -7.63028230814817    2.66298766105781   -3.87056438704157
H          -8.83715950959804    2.11140203414705   -2.68384455535746
H          -7.81727975745711    0.48766089365164   -5.06901037795866
H          -9.40055739118966    1.27368205527234   -4.95345906236710
H          -8.99230380624291   -0.07559193996019   -3.88048446852637
H          -7.77494156568356   -5.51199761954408    0.84341985289560
H          -8.15598441769095   -4.77581757692969   -0.73064516081686
H         -10.01494312236660   -4.82203074599560    1.70058996783264
H         -10.17288968086132   -5.84928974992685    0.26661364626533
H         -10.39534203064854   -4.09688835778992    0.13828328209121
H          -3.98808464977726   -5.12855417924767   -1.43557056910907
H          -5.02610936065591   -6.53013613919596   -1.11827439630152
H          -3.39898219101639   -5.02944925029066    1.00151493049992
H          -3.01512831512434   -6.61534331547248    0.31776633334788
H          -4.46494964845213   -6.40448865977390    1.30996325262371
H           0.14737475324274   -7.82820786236642   -0.02673439805461
H          -0.97000012521553   -9.77731928611493   -0.98902290319798
H          -3.03414193651590   -7.23596975084456   -3.74079346438703
H          -1.89822012497890   -5.29345238155470   -2.78951600133849
H          -3.66453630366785  -13.18749307393079   -3.46628700729405
H          -4.92530649025799  -11.42764302788170   -4.94765226347139
H          -4.13903008147580   -9.01778349302634   -4.44056462543698
