224
 SCF done       -420.977041092387          0.000292244042
C          16.84921281872593    4.83422650594773    4.10115956549062
C          16.56759568973245    4.55863023694393    5.45279098887517
C          15.27437940167060    4.79779546735136    5.97530326316726
C          14.23246624464059    5.31228621670654    5.21551218684823
C          14.50836130837582    5.57880484691174    3.86395955902277
C          15.80402885290309    5.35374226547845    3.34209778054448
C          17.45096680502696    4.07783307727555    6.46459977600259
C          16.85795911944980    3.95252223700264    7.66858339791619
S          15.18943964770799    4.41002424624608    7.67074924350551
C          13.60153878097211    6.01128929414451    2.86884753319197
C          14.16305866637580    6.14694571301044    1.63365053785788
S          15.86430843561829    5.73024863001641    1.63769188502591
C          18.14020981125877    4.57008620362479    3.49743240084966
C          12.90851261185785    5.55927549872620    5.75972696906284
C          12.15919671398043    6.70120420729317    5.67940860128711
C          10.87745395913551    6.57214744891531    6.27577271539363
C          10.64598350905631    5.34488116246761    6.82092644437391
S          12.01975290188102    4.31834661242861    6.59324432713945
C          18.80364739669679    5.32158610233045    2.56849719196115
C          20.27655730045570    3.54035613185891    2.72442475629150
S          19.02239838883331    3.10673934791731    3.83799887401263
C          13.48565337778419    6.55930499999686    0.45164297741879
S          11.82207405643519    7.04781851714473    0.55992151502693
C          11.74252695262482    7.29002741147350   -1.15959354158842
C          12.95832237709891    7.02577765286549   -1.75364746722216
C          13.93974972353890    6.62004016331401   -0.84647049133818
C          10.47942488710633    7.64610052511371   -1.73321620463379
C          10.16585711283748    7.67608331361402   -3.08599775719982
C           8.86988803866835    7.89473009638793   -3.58037724268200
C           7.75681182476379    8.10734946842019   -2.77443229917606
C           8.06560785359523    8.15857390034879   -1.39401201983417
C           9.37638861609721    7.93455414908009   -0.89636766547679
N           7.27160203978757    8.37346998468182   -0.33629838980013
N           8.06717593148566    8.28546480795632    0.69296139697349
N           9.31840511517680    8.02805160211016    0.43692895041752
C           6.39712122125886    8.17801361899937   -3.21750237890031
C           7.59659462035880    8.47839104093005    2.03630811121930
C           8.06162725104356    7.33910188468904    2.93308171444036
C           5.86300137182500    8.05082931479883   -4.48322053806955
C           4.46765167699847    8.02745521795548   -4.49445759402074
C           3.91238027950009    8.14890126841028   -3.24023779719847
S           5.14085876130532    8.31630876790519   -2.02231064221367
C           9.40123781201356    4.84602258497590    7.46817639970348
C          21.42508930584584    2.62154797939819    2.48814669382507
C          20.99704863509228    1.39582920631426    1.67822681218490
C           8.45384264942904    4.23711954348148    6.43131703984517
F          11.12447106146036    7.44384524186487   -4.00403226275110
F           8.73181372466235    7.85043826833752   -4.92028098904412
C          20.01309393803331    4.74050397328723    2.13973330560899
Cl          9.74180098720266    7.85745109914346    6.30505149993378
Cl         12.71445347317675    8.17849985779586    5.00062131632034
C          -0.10060686932964    7.94820908181622   -0.28241021864947
C           0.68176978622633    7.93881541356744   -1.45559854820636
C           0.13861395409829    7.45888298589223   -2.67267532579885
C          -1.13441615053101    6.91886414027876   -2.77106887101170
C          -1.89873656614584    6.87239584573588   -1.59229460180128
C          -1.37408181266092    7.39870124243399   -0.38626980003445
C           2.05353852429280    8.25476314896564   -1.59154990445137
C           2.54776645828185    8.05404531021674   -2.84750293722422
S           1.31354599139265    7.49530193306317   -3.95995911597387
C          -3.18648921013228    6.31109651142620   -1.41485630799769
C          -3.64089812199335    6.38027012204734   -0.13162661538668
S          -2.51735285197307    7.22414859723731    0.91897170264915
C           0.41084004908198    8.45924489971036    0.97279307057610
C          -1.63236840424859    6.36748135439471   -4.02162184717171
C          -2.06821080543869    5.09737152532791   -4.27538531870771
C          -2.47185134972060    4.90348642405977   -5.62403999277544
C          -2.33700114150170    6.01485759977454   -6.40094300750966
S          -1.71339548013411    7.33086118047845   -5.46582986249614
C           0.21944453702972    7.96387766881222    2.23280642176817
C           1.54931312443662    9.78844755682687    2.75031558345998
S           1.39571089227638    9.89585938564624    1.02900696036635
C          -4.77040289364680    5.71693367188536    0.43057528750314
S          -5.43464717117019    4.33294429574950   -0.37685935656385
C          -6.44533406684377    3.97069878593533    0.99287395280037
C          -6.29961122131979    4.92698022977039    1.97754893363981
C          -5.35083764706174    5.90010393461422    1.66620876924140
C          -7.14614254033060    2.72713546866851    1.09987106662570
C          -7.12433455072584    1.74175509323430    0.12038236979716
C          -7.55792546070134    0.42732552080680    0.32707566974783
C          -8.06866308804412   -0.03894877407288    1.53207757136361
C          -8.24322126173582    0.98049182760510    2.50256019125343
C          -7.79296603101282    2.31971759073791    2.29476273167570
N          -8.76546647378529    0.92565810357206    3.73471733867064
N          -8.63306651445958    2.13596268290829    4.20051172780686
N          -8.06604523167147    3.00596243556759    3.41232091039152
C          -8.26687741645565   -1.42417717537245    1.83155226559847
C          -9.13849926516285    2.50522637581216    5.49187580232195
C         -10.59168271845091    2.95792878903478    5.38479181056158
C          -8.73482517561411   -1.96590287107162    3.01152700182278
C          -8.61568196190791   -3.35379889140871    3.06833381683023
C          -8.05738938299261   -3.89853539745027    1.93197981479835
S          -7.71165382837984   -2.67312050540591    0.75414972399705
C          -2.70917246666608    6.19210267608012   -7.83157979265309
C           2.40010229151265   10.76207786198432    3.49039990895171
C           3.88621261087547   10.46832608488272    3.26839702881592
C          -4.13448352536065    6.73431841370185   -7.96264375132155
F          -6.59644038197957    2.01632129110669   -1.08807400864046
F          -7.39852466814540   -0.42618860613035   -0.70345197059907
C           0.87209542554209    8.71076644301121    3.23256473053532
Cl         -3.05794007640654    3.39735434922493   -6.20109858957646
Cl         -2.06771519965660    3.82786142818303   -3.11876958797502
C          -6.03337250111247   -7.86394736475284   -0.33801137027536
C          -6.66068746988953   -7.07398720056715    0.64755721667494
C          -6.90837169706376   -7.60376963102902    1.93919597441529
C          -6.55025480255576   -8.89088595917009    2.31032939346721
C          -5.87915197628302   -9.66387424236118    1.34391849284270
C          -5.66138764431405   -9.14896213693981    0.04407497364906
C          -7.10834432808034   -5.73627171081420    0.54209478649187
C          -7.65578857075124   -5.24155464070542    1.68990790223055
S          -7.69695165952042   -6.44082998550208    2.96944621997938
C          -5.27912271968102  -10.93088145688571    1.52021276822389
C          -4.64575074041410  -11.40010837486337    0.40618813839766
S          -4.76964001004193  -10.28430635871751   -0.93778357585760
C          -5.74276971673503   -7.37329962768837   -1.66926648810246
C          -6.79740917249227   -9.42925040304041    3.63576501233918
C          -7.34853014382473  -10.63597938385992    3.97116151745044
C          -7.37247583889268  -10.87114564850305    5.37107086657039
C          -6.85749647004352   -9.84796635283334    6.10885128501383
S          -6.31991033867571   -8.57137575876344    5.07182525636205
C          -5.82564112130948   -8.05949525421310   -2.84936754466314
C          -5.02021754289263   -6.04001736670865   -3.64917295339325
S          -5.13743009562018   -5.76269977566903   -1.94447890875569
C          -3.93380161021385  -12.62708703014726    0.30095247572255
S          -3.88848460725500  -13.70769933960909    1.66114272171636
C          -2.86256884027604  -14.81227056661803    0.79630501505407
C          -2.60106709932730  -14.35203491484851   -0.47691552894177
C          -3.20588395759968  -13.12509571635491   -0.75611707754625
C          -2.40534725606769  -15.99271665109883    1.46722265467033
C          -1.50003168077905  -16.92056450638617    0.97464924786790
C          -1.06424882600647  -18.03586945387262    1.70737407499235
C          -1.47987415815314  -18.34170029818860    2.99697112865285
C          -2.41942397946784  -17.41944820083237    3.52324266947673
C          -2.85929025989553  -16.29305031592873    2.77271994950909
N          -3.05543223873893  -17.37213550805932    4.70495267236472
N          -3.80280641129120  -16.30516868646301    4.63405447045350
N          -3.73792147495152  -15.62449044613180    3.52651424857161
C          -1.01849033484504  -19.47284473094291    3.74918822057512
C          -4.68548663440192  -15.92421277772506    5.70298843671521
C          -4.71482938262998  -14.41167372150536    5.86270552955142
C          -1.39480228113301  -19.81875794265411    5.02635873811369
C          -0.76053560713194  -20.98086627986582    5.49040744737500
C           0.09214617942059  -21.51431801126855    4.57191174250572
S           0.13994861781249  -20.61053614438065    3.11972710677797
C          -6.67068775134314   -9.77883967646216    7.58434803701479
C          -4.56202232001070   -4.95154071808406   -4.55662355076378
C          -5.59060316574983   -3.82128604454810   -4.63469861109233
C          -5.28883415397785  -10.30287416869468    7.98310845578628
F          -0.98052041553271  -16.77445269382611   -0.25953315621118
F          -0.17531224529783  -18.83966188171921    1.08981775267916
C          -5.42902879668126   -7.29923348623646   -3.96625789401416
Cl         -7.99964944115243  -12.31636490587353    6.05094611580524
Cl         -8.02274476774623  -11.74136126415291    2.84203372741367
H          18.48641536220638    3.85015874966291    6.29292343629902
H          17.29764285210220    3.61661664736714    8.58714577497205
H          12.55785914430821    6.19434395028603    3.04664501266796
H          18.45433999312530    6.27905145700243    2.22678172032991
H          13.13144874856440    7.11925030124590   -2.80978093867423
H          14.94743861524018    6.36393495952632   -1.12280715793445
H           6.50841208656686    8.53917464260897    1.98113165794692
H           7.99240788792456    9.42810346717593    2.41000868576193
H           7.63620890843210    6.39414463571309    2.60399970034066
H           7.75338236058218    7.52778679120000    3.95726382199277
H           9.14541156212490    7.26631217629354    2.89831486052964
H           6.46079482050330    7.95901274610948   -5.37081777731545
H           3.87387019776105    7.91291402453077   -5.38416571342750
H           8.90540492459095    5.68025048655331    7.96862698823969
H           9.65866360272272    4.09259968809303    8.21385823794655
H          21.83661808485612    2.29139163820853    3.44530449662395
H          22.20397964153720    3.16519537010045    1.94933653412528
H          20.23192425636589    0.83886306851320    2.21443253562320
H          21.84791101534024    0.74151431093861    1.50618716969605
H          20.59168409665100    1.70118019204160    0.71625141387768
H           8.18121730245985    4.98137811436557    5.68721877796082
H           7.54949013404125    3.87974990764704    6.91628564590842
H           8.93370615572929    3.40171839518177    5.92749143881201
H          20.66732329313694    5.20073720227933    1.42061587922012
H           2.68269160746489    8.58009617884077   -0.78370335614094
H          -3.75345501376321    5.85137944060735   -2.20344529733299
H          -0.33751302133752    7.06765666567605    2.43649189772084
H          -6.84807608335560    4.88177493108970    2.89978070556241
H          -5.07272777988199    6.70645750832261    2.32174554445189
H          -8.51193616161720    3.31446751822238    5.87099899306140
H          -9.05700994876139    1.63050094899201    6.13966000203464
H         -10.66866363414555    3.82044809270539    4.72745894420053
H         -10.96640894195973    3.23063238686263    6.36701793124651
H         -11.20590512873219    2.15489185601739    4.98499347866978
H          -9.12360473056624   -1.35335809820767    3.80341391333982
H          -8.90390338407237   -3.95270536173592    3.91422336720258
H          -2.63849080621639    5.22547714318277   -8.33371729097140
H          -2.01138450746715    6.88540163844124   -8.30400752677738
H           2.16720266158372   10.69737357192604    4.55528743373722
H           2.18152201168435   11.77730344440708    3.15146700006845
H           4.12680277589436    9.46456003279441    3.61249450666720
H           4.49778723048166   11.18059043160789    3.81647377701699
H           4.12909936262921   10.54088081771815    2.21040176060345
H          -4.84189706917883    6.04638415528539   -7.50669421971814
H          -4.39311919716393    6.85641972280730   -9.01097648022315
H          -4.21764710714839    7.69859173647125   -7.46691669917621
H           0.83920187674097    8.45502115218414    4.27695609996107
H          -7.02393080101085   -5.13955623462112   -0.34733890681215
H          -5.27877213256704  -11.47245044401295    2.44825426428907
H          -6.19616474108221   -9.06619284937307   -2.92070722086269
H          -1.99097112214528  -14.88361539853147   -1.18333456600474
H          -3.11321238754869  -12.60643772587755   -1.69409710437917
H          -4.32880485433145  -16.42596609546435    6.60454525498796
H          -5.69058251010721  -16.29220729041110    5.46940359848376
H          -3.73419325366911  -14.03605080865468    6.14402731621214
H          -5.43256674609844  -14.13825701845639    6.63071891994619
H          -5.00711323554548  -13.94959430428282    4.92385440441798
H          -2.10385994786116  -19.24248278955891    5.59027168721503
H          -0.92817910087901  -21.40482853174869    6.46430682585775
H           0.70013083135367  -22.39258134784973    4.66377161372104
H          -7.44287854362415  -10.38205481680318    8.06571277601999
H          -6.77676704563551   -8.74441285071094    7.91442940899333
H          -4.39717570135910   -5.37148307551740   -5.55123187372273
H          -3.61369066772840   -4.54558675824996   -4.19502904046683
H          -6.54278607716869   -4.20024704049039   -4.99931866347313
H          -5.24415621343078   -3.04335742127498   -5.31007088837320
H          -5.74639320151823   -3.38245067855449   -3.65175586276150
H          -5.17180072450408  -11.33568449796972    7.66450785095439
H          -5.16705868724498  -10.25339963098388    9.06176166152705
H          -4.51060392418796   -9.70500120169512    7.51517997168272
H          -5.44340752035121   -7.67711528358533   -4.97322718488906
