221
 SCF done       -385.005447709557          0.000827860515
C           3.88803984408750   11.20442347829718   -5.95942099110226
C           4.47160478863299   11.79948180173268   -7.09225804808760
C           5.87506936683572   11.94485646546536   -7.17809420361781
C           6.75188339921591   11.51978167767145   -6.18332872689233
C           6.16388169047349   10.96200653696298   -5.03164303956033
C           4.75650817656862   10.82936691387736   -4.94127400685903
C           3.81651171830528   12.32559688550510   -8.24491840885486
C           4.67583928267936   12.81187605413708   -9.16236354438444
S           6.33524754894290   12.67724094056734   -8.69333876997615
C           6.80921881249846   10.49575930991869   -3.86079077311560
C           5.95359223371863   10.00637275825531   -2.91786254694362
S           4.28111398189993   10.10349547896806   -3.42882110985806
C           2.45855688349617   10.97208543035783   -5.88408989424832
C           8.18650701942700   11.64027761964965   -6.34314190670245
C           1.63834832083940   10.46597822301615   -6.85204928398032
C           0.29575981189229   10.34975607304786   -6.43944946778428
C           0.08270610157895   10.77553121242030   -5.16493784716692
S           1.55814597390414   11.31946732907581   -4.43570046778225
C           8.89128966213060   12.67433447898012   -6.89278693219481
C          10.28194057193358   12.45103596342775   -6.91992541598259
C          10.64853177557790   11.24254088444451   -6.41314414813056
S           9.26408189315086   10.35380986814382   -5.87127309232795
C          -1.18595663044740   10.77451596514943   -4.38417836955801
C          -1.17157128758926    9.68547658331131   -3.30990496177390
C          12.01613223175040   10.67504016262224   -6.24981900005149
C          12.41728428512897   10.60753414066643   -4.77510490241781
C           6.29275282502454    9.46965432537191   -1.64458564166287
C           5.44872911404602    9.08792482592842   -0.62329915873861
C           6.11635828176703    8.60968888748154    0.50261731915438
C           7.48909557305288    8.60714056236942    0.35569030550645
S           7.95491891985827    9.22100176281370   -1.20796681162465
C           8.46591242192054    8.17785162196151    1.28775112381749
S          10.16547237012517    8.13447361873227    0.83896727052314
C          10.66394670473926    7.53285114749420    2.41092350902555
C           9.55332347459143    7.39492827855040    3.20898351037391
C           8.32709881856315    7.74518335617223    2.58749325847618
C          12.01865973236056    7.24640005021382    2.69968562931009
C          13.10348697417456    7.33123821826208    1.84689060613376
C          14.30053862869186    6.94524257226580    2.44236321468027
S          12.49326026375119    6.68528679519934    4.27627071745685
C          14.14735435234989    6.56975124947949    3.76126069214028
C           9.27616276147206    6.96857140091259    4.57853771524872
N           7.89793122183278    7.08115743179707    4.71363596906575
C           7.25405493861721    7.53165501117223    3.56520775541613
O          10.02656939406668    6.60036303284643    5.45445211187419
O           6.05851660067182    7.69102630545520    3.47629911809124
C           7.19791834543791    6.72733158591302    5.92906486162743
C           6.99406442488771    5.21982088243763    6.03205996200868
C          16.18156284050637    4.96767289044427    8.02283327990227
C          16.07424377063369    5.35721899106786    6.67215145475726
C          17.19713460867933    5.28867348235206    5.81150589903341
C          18.44311425472769    4.82591456849643    6.21964357516874
C          18.55959667698994    4.46630679487454    7.57844300682116
C          17.44131418782078    4.55962594153872    8.44439833354430
C          14.92850493748480    5.84173175120810    6.00145662220483
C          15.13089420541824    6.10684583498944    4.67864047066788
S          16.78402251771735    5.79350106375860    4.19208192898334
C          19.70787432310193    3.99462922779347    8.25616789053231
C          19.49744560244995    3.71718641331725    9.57567104221948
S          17.84607810281068    4.04540107131782   10.06126562254073
C          15.03606185310730    4.96263847868077    8.90969729764679
C          19.54233715761881    4.70268452420546    5.28428230474304
C          14.97180176876306    5.33509324216112   10.22336076250969
C          13.68544647551558    5.19280238355015   10.78051802558475
C          12.76748940015320    4.69166779219051    9.90876946392423
S          13.48359135628661    4.38800698838599    8.36375243723009
C          19.88550049421875    5.55646053098973    4.27264372954231
C          20.98845290337122    5.11250559413568    3.51812455919215
C          21.48656625021111    3.91671098475313    3.93659494223318
S          20.59335219981674    3.31279277368031    5.29026684101872
C          11.31205214385256    4.44901606546744   10.11309828947527
C          10.46599192309688    5.45960114344591    9.33396154986125
C          22.61250725041559    3.12488177698968    3.36736353450646
C          22.09815967217806    1.91601476423826    2.58287737404944
C          20.45467121757832    3.21244722445490   10.49983478035461
C          20.32605690519171    3.05363371777042   11.86491006068364
C          21.46525709820654    2.51995352955309   12.45901498184919
C          22.47545043973468    2.25083310671329   11.55463153327832
S          22.00706528505247    2.68029117767336    9.93377460095577
C          23.74039848939324    1.67290996610745   11.81292791842049
S          24.26394427854041    1.28832718412221   13.44892245918723
C          25.79154175123050    0.60510809931701   12.89983815753584
C          25.85332012978969    0.69237292121703   11.53091654376858
C          24.72147506151591    1.29410756242625   10.92843726294585
C          26.73203097864368    0.06903961646380   13.81119426580156
C          26.67624720008632    0.09635884795627   15.19217737851361
C          27.76017260182021   -0.53048643310107   15.79719256931559
S          28.15943746914284   -0.75282063367438   13.25137464470121
C          28.65418397606124   -1.05822044006287   14.88523165121432
C          26.79358479588656    0.32230620995310   10.47292005861588
N          26.17806039943791    0.72620586484699    9.29245290295184
C          24.93578523122950    1.32475631580824    9.48234618517484
O          27.87028269735088   -0.22434403717128   10.54035200064560
O          24.23572496921904    1.75379443402800    8.59382477480733
C          26.78753258393833    0.57655387162839    7.98951553953067
C          27.60632473135906    1.80765368954903    7.61686607535295
C          32.51400425839048   -3.11126564683140   17.34288414921103
C          31.63551522631126   -2.75939174187364   16.29768844955217
C          31.84273279655535   -3.27358188412439   14.99339819217242
C          32.86627939832445   -4.15770728521989   14.66757451548669
C          33.74799235143108   -4.50393510595430   15.71077245646034
C          33.55865987972259   -3.96691291854156   17.00822301193584
C          30.49886183516547   -1.91669895900161   16.35488016425946
C          29.84194480354140   -1.79729349999316   15.16329141975849
S          30.61791532198541   -2.71152656099884   13.89001127009817
C          34.87002984874514   -5.36444648505189   15.65321497796323
C          35.50840634793889   -5.51896507910473   16.85111020240162
S          34.75704213695544   -4.57375597192194   18.11904082781148
C          32.34859540950031   -2.64329989152863   18.70422201076681
C          32.97138086433259   -4.70940224641931   13.33223533661433
C          33.32490704779485   -2.27167523757289   19.58601064108764
C          32.82886451238815   -1.91906767482100   20.85620155822643
C          31.47748173357503   -2.03444619246619   20.96314379885756
S          30.78344291984944   -2.56905464119989   19.46798781985891
C          32.75560546370870   -4.07694466620450   12.13981208599815
C          32.87594464773871   -4.92892695221641   11.02457649982274
C          33.16373851636913   -6.21762754042910   11.35270283747357
S          33.31504706347388   -6.39857916139683   13.06932609120782
C          30.60745148796053   -1.72403166656611   22.13183467986908
C          29.85174276879068   -0.40904007315519   21.92892496348524
C          33.38000335649018   -7.38297809721902   10.45030105498322
C          34.84806654093048   -7.81286611659155   10.43361212020957
C          36.64834304558227   -6.32723723227631   17.12681659301745
C          37.30015535489603   -7.19085878385567   16.26762574355630
C          38.37720077910518   -7.85062931091046   16.85274252431694
C          38.57236018622658   -7.50185085084413   18.17501096755056
S          37.39082966273718   -6.33204232176096   18.69413118380819
C          39.56885181265260   -7.98283053670506   19.06030541262879
S          39.66714104537940   -7.38089117257264   20.70867122393927
C          41.04444809083788   -8.39642859638814   21.10048771420969
C          41.37706053278187   -9.14079910870010   19.99706801513808
C          40.56125027557843   -8.91545384552648   18.85741661653330
C          41.63662133948586   -8.36482508187759   22.38967222013899
C          41.25324566148259   -7.59082339173428   23.46325478724456
C          42.05201964142902   -7.79695045864394   24.59480139705022
S          43.00484907409155   -9.36490178871250   22.78996263203770
C          43.03208219507802   -8.72009695551442   24.37614692097841
C          42.37960843042458  -10.15067694467202   19.66024246253872
N          42.11354348128823  -10.48619896861999   18.33784891559171
C          41.04739079043978   -9.78708586860277   17.78191673767711
O          43.26025644227310  -10.63510416654155   20.33257144661030
O          40.66121077532708   -9.93266308128712   16.64484563971921
C          42.90320580594614  -11.44255436766210   17.59338628354892
C          44.07118290993615  -10.76414637513695   16.88592455422962
H           2.74819198973776   12.35015027779685   -8.35667190410927
H           4.44681226589518   13.26426553272264  -10.10742209831839
H           7.87159166474843   10.53186878297515   -3.70191577849225
H           1.99427935205541   10.14665048326566   -7.81556061676791
H          -0.48539285165654    9.96326998520109   -7.07028085509399
H           8.43289653511581   13.58516551463812   -7.23299227380413
H          10.98691947410704   13.16520474063454   -7.30729514151356
H          -2.02008158848883   10.60691970943417   -5.06869755862905
H          -1.32506518044891   11.74688347400530   -3.90562695499868
H          -1.04184014589047    8.70676656079788   -3.76575990259228
H          -2.10607191521727    9.69029041688266   -2.75447284165066
H          -0.35172781948548    9.85405703657799   -2.61581358350246
H          12.72295270912555   11.30212464432390   -6.79693295330896
H          12.05083502579647    9.66897645437193   -6.67548253769105
H          12.40009718038229   11.60080885988331   -4.33249512605856
H          13.41976656599394   10.19923158037949   -4.67537508839699
H          11.72618976409010    9.97249668168424   -4.22540967144209
H           4.37890797107933    9.16489213552048   -0.70372924344730
H           5.63200598033885    8.27502561670182    1.40223671873244
H          13.00888689239293    7.65913668331576    0.82640892877994
H          15.25283510267739    6.93546025919964    1.94243553768618
H           6.23649339502666    7.24563682681052    5.90702312995384
H           7.79468660309758    7.08438588188859    6.77276067891075
H           6.40826798868718    4.85995176507324    5.18919761312741
H           6.46746288232919    4.98134417656268    6.95188743545748
H           7.95657643200980    4.71369861235187    6.03703138443972
H          13.97589296570397    6.00722399957021    6.46984846658372
H          20.67214379650763    3.86872428118529    7.79879852134213
H          15.80980088308440    5.73760215187693   10.76350063775059
H          13.45003379300934    5.45562243803327   11.79681747255460
H          19.38821413826137    6.49327676224458    4.09722366161916
H          21.40193669936995    5.66649387289241    2.69387304345462
H          11.08923648476135    4.52410775375828   11.17984714701531
H          11.05770720550647    3.43919849941721    9.78055311206205
H          10.69598404862654    6.47251363457217    9.65715043852373
H           9.40834686983258    5.27244273733662    9.50365665236193
H          10.66538958713668    5.38655150548672    8.26704390737921
H          23.26065876669017    2.77736143648917    4.17542841377571
H          23.19847325860049    3.76938574543998    2.70849263690427
H          21.52686283701016    1.26023163121454    3.23590897576826
H          22.93046156259421    1.35398935891902    2.16673534455569
H          21.45382749505113    2.23960052356947    1.76846054815237
H          19.43156316365079    3.32182928008794   12.39860815767724
H          21.56682569600142    2.32084973326676   13.51152625430023
H          25.86582502797252    0.56087753742629   15.72621729309290
H          27.88478297110947   -0.61879270834067   16.86090987512799
H          25.98141704878731    0.42403920876175    7.26767881600456
H          27.42621621599480   -0.30897139391422    8.02847903290901
H          26.96752400888293    2.68756041309777    7.59000209550491
H          28.05486693783383    1.66972808092150    6.63694888599242
H          28.39786995382030    1.96595342249924    8.34576190737882
H          30.18582348975778   -1.40049894161942   17.24267080647891
H          35.20111221765809   -5.84581141235225   14.75278747078627
H          34.36610176746024   -2.21625396867702   19.32461619018950
H          33.45794839682850   -1.59591533929169   21.66663052858684
H          32.55108888375280   -3.02494033360927   12.05737064624076
H          32.74474526560540   -4.59479698903096   10.01073287529336
H          31.23249610353816   -1.65454797787514   23.02457796661084
H          29.88644931597869   -2.53175669241061   22.27972643860843
H          30.55156278350312    0.41165025618371   21.78810772179835
H          29.23134825225246   -0.19314739806438   22.79500374682477
H          29.21303827690418   -0.47371319528482   21.05082133766465
H          33.06470045636421   -7.10664692191565    9.44204190141824
H          32.76577900710550   -8.22409523023015   10.78223651791482
H          35.47871355562990   -6.99360691625047   10.09557093600502
H          34.98600503566034   -8.65781422833538    9.76380186159693
H          35.16567999871137   -8.10547946507938   11.43199047774174
H          36.99456154081648   -7.34060996742315   15.24857237628819
H          39.00215664813896   -8.56406795092497   16.34626254534487
H          40.42477361203463   -6.90603188679505   23.41813773537504
H          41.90904594760423   -7.28561233375633   25.52972995653363
H          43.77487527079678   -9.06192280688805   25.06985102466260
H          42.24118142272533  -11.91755897160857   16.86524176362688
H          43.26959324721788  -12.18592239451664   18.30551096431601
H          43.70271008838541  -10.01533540436088   16.18842673873391
H          44.64768849322478  -11.50225004980814   16.33550135287051
H          44.72084059619490  -10.28257760196735   17.61324863378485
