254
 SCF done       -436.152738948665          0.000661460307
C           5.57153672785992   14.38925501297702   -0.83442999377114
C           4.19871566915880   14.56892855542483   -1.08124476795840
C           3.48104848835875   13.60511271401760   -1.82675049541186
C           4.05572928814234   12.44036319044093   -2.33123985863189
C           5.43184014782162   12.26688204297066   -2.09487067937372
C           6.15485892493717   13.24538309932190   -1.36988223375609
C           3.36089886368522   15.65159480793457   -0.68072471968213
C           2.08121228337458   15.50133800419415   -1.07592905744445
S           1.80149255261358   14.04908018565703   -1.97036249236965
C           6.26552722736394   11.19776147415565   -2.50858091831173
C           7.56229752926360   11.32410045927217   -2.10975154956326
S           7.83088769798845   12.79688915892175   -1.20019824202221
C           6.35438562813651   15.31830433780360   -0.04216641559461
C           3.25617492856655   11.46520313851768   -3.04558012674648
C           7.63022242532664   15.74745511706484   -0.27181772470302
C           8.09082476861713   16.60609634168471    0.74530899563607
C           7.21236069031848   16.83511997644655    1.76160705954473
S           5.74438828888980   15.97310585602963    1.45381983919996
C           2.25886762587341   11.70323226803835   -3.94865486068037
C           1.66167891104081   10.51252685677721   -4.40477014849086
C           2.16460159373405    9.36326180443919   -3.87188816223244
S           3.43135984671790    9.75345686517189   -2.76118419528445
C           7.38712157018969   17.69672153581490    2.96409852210807
C           6.41731024238177   18.87878998579981    2.95484174662476
C           1.73283552460239    7.95922403024790   -4.11871897371052
C           1.03639271660550    7.36607690523037   -2.89293940941472
C           8.64060880596354   10.42834452913527   -2.36149490497339
S           8.35462755592358    8.90223004890524   -3.14341979782106
C          10.04534515793373    8.49366635364588   -3.07330762166652
C          10.75925831169243    9.49920283682563   -2.47040973091316
C           9.97363921430200   10.58735545330942   -2.07361708626764
C          10.52717287361235    7.21148438862834   -3.53983538214882
C          10.01527251486753    6.58074741886157   -4.68919785141405
C          10.48142808030997    5.30044446732698   -5.06097736019422
C          11.45772841912338    4.60034310287105   -4.35422373125489
C          11.98435855837366    5.23842702500500   -3.21721628659809
C          11.51613017509191    6.51769296219096   -2.84188637735017
C          12.94489774330403    4.73737403787815   -2.29054956446907
C          13.21071389618578    5.57761842345856   -1.26726426075033
S          12.29102121729905    7.05680496898568   -1.37645422007038
C          14.19466625421316    5.39598635263513   -0.16458560557754
C          15.49558467972139    6.14346989076289   -0.46740472651593
C           9.07659085944064    7.08874071386405   -5.63513173253611
C           8.82292772603664    6.25038279921752   -6.66328515837650
S           9.72793398755114    4.76298937433389   -6.53742792884824
C           7.92800377665852    6.47093759041875   -7.83258476199190
C           8.73401101865774    6.65907305256788   -9.11907802614559
C          11.90098526765347    3.29602915075801   -4.79800362844061
S          13.58292506913148    2.85204049972847   -4.78397924270700
C          13.22853586541232    1.30256083507160   -5.48957847760434
C          11.88056622058526    1.16242871617394   -5.70960024336652
C          11.13821130463938    2.28561741735427   -5.32736538675534
F           9.31798910345162   17.15804845222092    0.71310136945459
F           0.67006286627883   10.51317494829703   -5.31473621147947
C          17.79378874691481   -0.72555544935560   -5.79753431364228
C          16.39861186389137   -0.56798643566778   -5.91696526607925
C          15.61794939452102   -1.57906501497719   -6.52806833649722
C          16.15401537713531   -2.75927709784882   -7.03199448078027
C          17.55394631859087   -2.89547563445027   -6.95396298061823
C          18.33652556241829   -1.88119124400598   -6.34948632532858
C          15.60663363771016    0.53380800315176   -5.51185544663885
C          14.27565897441368    0.37752196268227   -5.76076435193670
S          13.92610511584425   -1.15827617153624   -6.52602389640277
C          18.35483291186351   -3.95243203943332   -7.44883943602664
C          19.68959358237867   -3.78591515338985   -7.22623193966357
S          20.03089670715533   -2.29431481044601   -6.37362185146614
C          18.62272870339354    0.25213540071758   -5.12137927062995
C          15.30285143679134   -3.78710745960437   -7.59684121069586
C          19.87025753093511    0.68833336357743   -5.46594819069538
C          20.37690748394866    1.62530997125476   -4.54414993204776
C          19.56297134696245    1.90986859333294   -3.48864992555125
S          18.10250362262353    0.99466398647885   -3.63151144099730
C          14.19378720007626   -3.62225801133628   -8.37754128613087
C          13.58497768138896   -4.85036007695130   -8.69927864696360
C          14.18849226159041   -5.95746248034332   -8.18200609640280
S          15.56946958187016   -5.47729822917770   -7.25785546865082
C          19.79339214856321    2.85848353569204   -2.36307210843580
C          18.70467210958330    3.92944975442120   -2.29554285165789
C          13.77936827768276   -7.38381333602775   -8.31118246683834
C          13.28109662028067   -7.94539443097532   -6.97869827464480
C          20.74391595319747   -4.64392985666614   -7.64957344051750
S          20.37810359947873   -6.12638465888289   -8.48124271765921
C          22.06752611860901   -6.47702782306288   -8.70772545028021
C          22.84164337418592   -5.49601439978622   -8.13885375751351
C          22.10162318026795   -4.46395887746453   -7.55006578435295
C          22.50189480865342   -7.68222291217773   -9.38103229063465
C          21.82512726649139   -8.20901064871390  -10.49800243049632
C          22.27400962619030   -9.40682653138799  -11.09687634586164
C          23.39191424770583  -10.11625639996350  -10.66008856317449
C          24.07594759076267   -9.58375938817734   -9.55417775098010
C          23.62062808393303   -8.39262274914984   -8.94510561376040
C          25.20564651502785  -10.12559723095640   -8.87412763959170
C          25.60214743360816   -9.40024746566790   -7.80616552933956
S          24.60734379906664   -7.98531218380973   -7.56753753682119
C          26.75911942546822   -9.64734382345218   -6.90244670482433
C          27.90368739008674   -8.67598140290906   -7.19901594228057
C          20.71607056086629   -7.65824693067432  -11.20581799534315
C          20.32643366822277   -8.38767998226170  -12.27359165479993
S          21.30008598170607   -9.82052565818516  -12.48165810001833
C          19.18856206207828   -8.12793922134406  -13.19799470127927
C          18.01342148440713   -9.06014062279454  -12.89524911393699
C          23.81567089693038  -11.31269277636177  -11.35636527771135
S          25.48783540465280  -11.60797056355277  -11.73869916540324
C          25.07766469681606  -13.04207695554039  -12.63474364851017
C          23.72309984235829  -13.26512380326833  -12.60539188031979
C          23.01686149090495  -12.29191019117406  -11.89059014113178
F          21.58357126902571    2.20075635425750   -4.70091688352831
F          12.48805708367583   -4.92247889067329   -9.47631168502096
C          29.51204858380055  -14.61516356097984  -14.37135084745213
C          28.12159182161705  -14.50875981321202  -14.16843920231279
C          27.23825427691363  -15.37159886668049  -14.86223980331990
C          27.66550248216366  -16.34762493864853  -15.75443250530392
C          29.05306290774864  -16.42749148723474  -15.98434055300057
C          29.93905695414840  -15.58349254579193  -15.27237036431570
C          27.42615851412920  -13.63238435521360  -13.29835796762872
C          26.07254110462215  -13.79325534146146  -13.32350114172604
S          25.58076767934521  -15.06937743968818  -14.41974318588422
C          29.73591144102722  -17.23528450932055  -16.92601499536097
C          31.08674036756822  -17.05043579604552  -16.93230147710738
S          31.59352444893990  -15.85986925248892  -15.75013184359549
C          30.44103310200868  -13.73611793911371  -13.68829245347227
C          26.74808081296349  -17.25216783560344  -16.41719684696470
C          30.33551599471609  -12.38985239545753  -13.48482552826025
C          31.43724448206157  -11.87652150524369  -12.77287997221788
C          32.38534849762620  -12.79074794110898  -12.42303011626721
S          31.91287718667118  -14.35549009588925  -12.99105635465769
C          26.90682479775153  -18.59156803659025  -16.63585694112788
C          25.80263462327394  -19.15079402126739  -17.30736759250916
C          24.80536916880174  -18.27644487832951  -17.62131208287213
S          25.22644136924534  -16.69579842009242  -17.05703015465576
C          33.64075549765379  -12.57530772579046  -11.65073993265648
C          33.58018650254673  -13.25348780078949  -10.28135638153535
C          23.50624506610568  -18.55363459814647  -18.29495043574692
C          22.33362650989720  -18.39014573117342  -17.32684230121765
C          32.04690253035882  -17.67996740030687  -17.77496453198594
S          31.53833956632264  -18.73875290795449  -19.05857708969202
C          33.18315942027854  -18.99682223021517  -19.56117298011256
C          34.05063164245259  -18.30669515168869  -18.75342310448201
C          33.41427859106881  -17.55770324592136  -17.75628424790651
C          33.50796660844073  -19.87458347295817  -20.66719154310690
C          32.78032373379611  -19.87860008281865  -21.87009723966518
C          33.12664895401954  -20.77958336884353  -22.90179925979598
C          34.16135622136467  -21.70596287156775  -22.79964393400979
C          34.90112108902824  -21.68787973169087  -21.60573156551915
C          34.56691501540845  -20.77592344129118  -20.57957313488118
C          36.01863341347936  -22.49719079080295  -21.24462452186441
C          36.50078433069922  -22.24600826986834  -20.00880791958969
S          35.61097457062408  -20.97889462235561  -19.19937147785321
C          37.61944138248447  -22.92700953374951  -19.30071981679746
C          37.08634383606929  -23.88908445105544  -18.23699711723009
C          31.68177519005233  -19.05062095841645  -22.24549607572536
C          31.19396483270594  -19.31181734827006  -23.47760235876078
S          32.06411916755074  -20.60056973484400  -24.27181924267357
C          30.04457180278290  -18.66504906652247  -24.16863578499767
C          28.84345921585521  -19.60968032972254  -24.24164990762036
C          34.42643616980820  -22.64508105561124  -23.87345069926623
S          34.72653587817744  -24.33070624349912  -23.55554533254414
C          34.84383133612862  -24.66860263171859  -25.23504364808558
C          34.66799937614847  -23.55680277667435  -25.99304794976407
C          34.42251262213948  -22.40468186005769  -25.21912575013912
F          31.54404903598514  -10.56886446965589  -12.46787060010543
F          25.74347974650777  -20.45941119205267  -17.61982758986588
H           3.71135214089475   16.50386148354318   -0.12923304717207
H           1.25706784485235   16.16661272370110   -0.90844841019250
H           5.92800630816178   10.36153251269998   -3.09286602817520
H           8.21346698857876   15.49899240540557   -1.13841999391403
H           1.97533815397458   12.67500288052909   -4.30649694609375
H           8.41705786246252   18.05961662665354    2.97709900414591
H           7.22093417961112   17.10257656986664    3.86689322866000
H           6.57287559731545   19.49055252121908    2.06913539186292
H           6.57209910439889   19.49700394163007    3.83511987595242
H           5.38936822987892   18.52261319686492    2.95496178156682
H           2.60295652378660    7.34710826160745   -4.36988394320196
H           1.04984228659990    7.95549314946556   -4.97091321203920
H           1.71233944141046    7.36243070255711   -2.04061961416131
H           0.72565759816935    6.34472069312585   -3.09658938872532
H           0.15713755960291    7.95240125592185   -2.63623408167543
H          11.82658244452573    9.46967899710128   -2.34902852461579
H          10.36249264809445   11.46838501631380   -1.59459441697750
H          13.40770619551793    3.77197288870285   -2.37977930692523
H          14.40289257194456    4.33034919668862   -0.04862596192210
H          13.77315770366683    5.77114203521658    0.77051771973591
H          15.93458295853111    5.77767277897189   -1.39285832039610
H          16.20925225350661    5.99816142904063    0.33946320444984
H          15.30164652738292    7.20836227583595   -0.57290340305407
H           8.62034117960502    8.05810509492189   -5.55641141595568
H           7.31616000185028    7.35562999120368   -7.64526649844314
H           7.26335879736608    5.61127730292280   -7.95021728496169
H           9.39510475514900    7.51807511168950   -9.02880923415420
H           8.06638609777211    6.82025605273836   -9.96153650826438
H           9.33833281462008    5.77671238275241   -9.31714893936485
H          11.45192351985445    0.27147323938951   -6.13304376008673
H          10.06772280363358    2.33978121378443   -5.40619324980298
H          15.99960003224333    1.42866185467596   -5.06545978268064
H          17.96807806541154   -4.80499070440904   -7.97627802252438
H          20.39928147233273    0.39363533902973   -6.35254103360691
H          13.83605469163589   -2.67805428460238   -8.74258643607190
H          20.77062019125964    3.32498840284753   -2.50486970243948
H          19.81288398028846    2.30702316965299   -1.41844981729105
H          18.67549928821036    4.50076379601513   -3.22066540888249
H          18.90024087523326    4.61169460486560   -1.47229333432206
H          17.73155954443798    3.46717741150516   -2.14302842095109
H          14.62894408810360   -7.97843810269350   -8.65716777037281
H          12.98665519962164   -7.44628218404128   -9.05982279594428
H          14.06764049496306   -7.89066867207852   -6.22920016053588
H          12.98384688119444   -8.98398168521452   -7.09780989353196
H          12.42421961493018   -7.37689908013559   -6.62466715697985
H          23.91542232044770   -5.49815485969951   -8.18176875504688
H          22.53910495081077   -3.60384161222122   -7.07494876123284
H          25.69139556066050  -11.03730176648522   -9.17011758900674
H          27.10185981988334  -10.67462628607130   -7.04181458391217
H          26.44513097459460   -9.52515920497226   -5.86296503767337
H          28.23781352542377   -8.78886893985265   -8.22782669531215
H          28.74316936296467   -8.86980002825587   -6.53632204403138
H          27.57396151208427   -7.64999018917218   -7.05231476064386
H          20.23995759881637   -6.73319209224185  -10.93917042802523
H          19.51190691516953   -8.28180185774326  -14.23019070860323
H          18.87277732814729   -7.08884866445126  -13.08534316227322
H          18.31561280524040  -10.09787071621592  -13.01646086235591
H          17.18732293651537   -8.85666932133765  -13.57171329675870
H          17.67145556297593   -8.91571230844689  -11.87287835902169
H          23.26429214937781  -14.10629909722135  -13.09397213032145
H          21.95209787491973  -12.32096642091049  -11.74746854634082
H          27.90687954885212  -12.91469712864208  -12.65912432575142
H          29.24500556254339  -17.90901406369117  -17.60444566837072
H          29.53729790267436  -11.77532960292308  -13.85749638649923
H          27.74654167454018  -19.17032034394403  -16.29888111684610
H          33.78696267607533  -11.50008952028537  -11.52701637541237
H          34.48788456548119  -12.97607819892931  -12.21330704499729
H          32.75257246946655  -12.85676927527579   -9.69784590244076
H          34.50420395434050  -13.07983550881789   -9.73617399090218
H          33.43943783990535  -14.32565152670091  -10.39874736404658
H          23.53014699219372  -19.57479134696159  -18.68142157662261
H          23.37635968967730  -17.86871287069019  -19.13681743441847
H          22.43416087748449  -19.07851713642218  -16.49084861622854
H          21.39564654095325  -18.59602364569135  -17.83579744619327
H          22.30609480896286  -17.37454415965916  -16.93816882299322
H          35.11547238180879  -18.31244028126589  -18.89957730482639
H          33.93091402007583  -16.94260695826659  -17.04096762314305
H          36.44977185710918  -23.23420204411689  -21.89706715631837
H          38.25941833668572  -22.18167375286847  -18.82238606527565
H          38.21591777334802  -23.47807785202306  -20.03063975165569
H          36.49823112207432  -23.34652703135242  -17.50025459969231
H          37.91011112865448  -24.38430551968439  -17.72938390837616
H          36.45360432082133  -24.64514964225695  -18.69630539219910
H          31.28072523081485  -18.27708701633303  -21.61654959191346
H          30.33965714938966  -18.38207319365548  -25.18224935893521
H          29.77039123889826  -17.75943296388779  -23.62367704231404
H          29.10672813933801  -20.51084366166580  -24.79086574247339
H          28.01237144321314  -19.12403177884354  -24.74668545292178
H          28.52595351618233  -19.89428981475753  -23.24111441965920
H          35.03961304223225  -25.67295115193435  -25.55400357312156
H          34.71016919204624  -23.55384611703563  -27.06742818871212
H          34.27975308254032  -21.42708668868975  -25.64247427137228
