# ORCA input file
# SCF done       -367.489927363328          0.000515412457
! wb97x-d3 def2-SVP def2/J RIJCOSX Grid4 TightSCF
%maxcore 5000
%tddft
    Mode sTDA
    Ethresh 5.0
    maxcore 5000
end

%pal
  nprocs 6
  end
* xyz -1 2
   C        2.93627         1.92843        -8.17285
   C        1.69800         1.51813        -8.70001
   C        0.71716         0.94913        -7.85378
   C        0.89218         0.77796        -6.48485
   C        2.14279         1.15783        -5.96283
   C        3.12751         1.71750        -6.81079
   C        1.25107         1.56957       -10.05306
   C        0.00014         1.09292       -10.21346
   S       -0.72431         0.54030        -8.74530
   C        2.59582         1.03239        -4.62596
   C        3.86829         1.48076        -4.43417
   S        4.56805         2.11706        -5.91543
   C        3.97152         2.54515        -8.97963
   C       -0.14432         0.24000        -5.62684
   C        5.32060         2.33893        -8.91323
   C        6.05387         3.13823        -9.81232
   C        5.27724         3.97097       -10.55650
   S        3.60127         3.76684       -10.16534
   C       -0.54837         0.69342        -4.40270
   C       -1.58690        -0.07433        -3.83972
   C       -1.97055        -1.12072        -4.62061
   S       -1.05745        -1.16673        -6.09229
   C        5.69218         4.92382       -11.62384
   C        5.34757         4.38344       -13.01340
   C       -3.04921        -2.11825        -4.37507
   C       -4.25991        -1.85072        -5.27165
   C        6.31456         2.28046        -1.48557
   S        5.81559         2.80670        -3.07136
   C        4.64649         1.52410        -3.24008
   C        4.65740         0.71151        -2.11325
   C        5.59944         1.15984        -1.13985
   C        4.01901        -0.48585        -1.67664
   C        4.41361        -0.90266        -0.43058
   S        5.63250         0.16021         0.27459
  Cl        2.90699        -1.39699        -2.61154
   C        3.97860        -2.02592         0.33023
   S        2.76542        -3.13863        -0.22356
   C        2.88125        -4.03926         1.24494
   C        3.81047        -3.50603         2.10547
   C        4.43057        -2.36852         1.59010
   C        2.04725        -5.21326         1.46901
   O        2.07587        -5.89183         2.46804
   O        1.23093        -5.43088         0.42499
   C        0.36337        -6.55914         0.50863
   C        1.07840        -7.84436         0.11692
   C        9.58500         5.83178        -0.21014
   C        8.84841         4.63079        -0.17515
   C        9.02913         3.71469         0.89047
   C        9.92946         3.91343         1.93246
   C       10.68251         5.10498         1.88573
   C       10.48689         6.02860         0.82968
   C        7.88935         4.17159        -1.10702
   C        7.31152         2.98432        -0.76015
   S        7.95226         2.34792         0.73869
   C       11.67074         5.54862         2.79854
   C       12.19685         6.76696         2.48893
   S       11.48487         7.44098         1.03436
   C        9.41341         6.82539        -1.24998
   C       10.06535         2.93791         2.99458
   C       10.37668         7.58716        -1.85099
   C        9.86400         8.48826        -2.80424
   C        8.50971         8.43774        -2.92646
   S        7.83701         7.24890        -1.86139
   C       10.02402         1.57511         2.88697
   C       10.15327         0.91091         4.12173
   C       10.28340         1.75413         5.18186
   S       10.25310         3.40611         4.66298
   C        7.62883         9.20279        -3.85246
   C        7.12437         8.31625        -4.99333
   C       10.40900         1.41945         6.62786
   C        9.12473         1.75153         7.39031
   C       14.43276         9.46771         4.23387
   S       13.00896         9.26140         3.24695
   C       13.17675         7.52748         3.19374
   C       14.30226         7.13084         3.90106
   C       14.99298         8.23725         4.47758
   C       14.99832         5.91336         4.15200
   C       16.13460         6.07099         4.90361
   S       16.41545         7.75787         5.34319
  Cl       14.52494         4.38704         3.53156
   C       17.07659         5.09605         5.34125
   S       16.94989         3.40858         4.94967
   C       18.39782         3.06822         5.82692
   C       18.93995         4.19994         6.38701
   C       18.19476         5.34604         6.11310
   C       18.92515         1.71195         5.90892
   O       19.93165         1.40604         6.50292
   O       18.14080         0.84669         5.24614
   C       18.55951        -0.51607         5.22428
   C       19.60033        -0.76128         4.14101
   C       14.41817        14.39832         5.03638
   C       14.84840        13.05545         5.02559
   C       16.11041        12.70342         5.56562
   C       16.98787        13.62239         6.13087
   C       16.55278        14.96422         6.14531
   C       15.30292        15.32110         5.58321
   C       14.17223        11.93167         4.49692
   C       14.84985        10.75720         4.65717
   S       16.38872        10.98275         5.45885
   C       17.23899        16.08959         6.65641
   C       16.58035        17.27002         6.48406
   S       15.02589        17.03881         5.70390
   C       13.11971        14.80593         4.54095
   C       18.29632        13.22073         6.60747
   C       12.79577        15.93982         3.84965
   C       11.41947        16.05082         3.57074
   C       10.68040        15.01867         4.06073
   S       11.68864        13.86657         4.87086
   C       19.14333        12.31576         6.02776
   C       20.37385        12.18694         6.69971
   C       20.47457        12.97362         7.80569
   S       19.02792        13.89498         8.03793
   C        9.21507        14.78006         3.93866
   C        8.91806        13.61669         2.99031
   C       21.63873        13.16287         8.71528
   C       22.31275        14.51548         8.46833
   C       16.94731        20.91619         7.79348
   S       15.78326        19.76907         7.25990
   C       16.99468        18.56943         6.89909
   C       18.26240        19.07458         7.15876
   C       18.20028        20.40487         7.68745
   C       19.61824        18.66111         7.01068
   C       20.53515        19.57701         7.46241
   S       19.77002        21.05009         8.06201
  Cl       20.13237        17.21380         6.24619
   C       21.95493        19.47645         7.51657
   S       22.82175        18.04907         7.03610
   C       24.32362        18.77986         7.46993
   C       24.15736        20.05675         7.94950
   C       22.81970        20.45008         7.97857
   C       25.57250        18.04722         7.30786
   O       26.66697        18.48787         7.56586
   O       25.34096        16.80698         6.84445
   C       26.47908        15.98089         6.61152
   C       27.10571        16.26675         5.25418
   H        1.84981         1.93927       -10.86453
   H       -0.56374         1.01753       -11.12260
   H        1.98787         0.63310        -3.83843
   H        5.77475         1.61035        -8.26644
   H        7.12528         3.09806        -9.89937
   H       -0.14507         1.57707        -3.94056
   H       -2.03204         0.14276        -2.88463
   H        6.76952         5.08617       -11.54905
   H        5.18959         5.88322       -11.47834
   H        5.85380         3.43642       -13.18719
   H        5.65600         5.08927       -13.78055
   H        4.27505         4.22310       -13.09904
   H       -3.34704        -2.06409        -3.32578
   H       -2.67255        -3.12470        -4.57344
   H       -4.65854        -0.85675        -5.08162
   H       -5.04108        -2.58213        -5.08050
   H       -3.97211        -1.91225        -6.31873
   H        4.01747        -3.93639         3.06824
   H        5.18379        -1.80139         2.10778
   H       -0.45490        -6.33648        -0.17936
   H       -0.01792        -6.63638         1.53249
   H        1.50100        -7.75051        -0.88071
   H        0.37395        -8.67105         0.12959
   H        1.87866        -8.05254         0.82296
   H        7.62539         4.68987        -2.01050
   H       11.96226         5.00053         3.67298
   H       11.42653         7.47961        -1.64698
   H       10.48236         9.15534        -3.37844
   H        9.94280         1.05945         1.94741
   H       10.15421        -0.16037         4.21842
   H        8.19458        10.04289        -4.26083
   H        6.77208         9.60071        -3.30299
   H        7.96224         7.91229        -5.55721
   H        6.49535         8.89114        -5.66825
   H        6.54290         7.48654        -4.59756
   H       11.23939         1.98022         7.06452
   H       10.62848         0.35386         6.72235
   H        8.90653         2.81450         7.31502
   H        9.23184         1.49146         8.44036
   H        8.28563         1.19628         6.97730
   H       19.84325         4.17794         6.96884
   H       18.44943         6.33201         6.45937
   H       17.64901        -1.08816         5.03443
   H       18.96820        -0.77617         6.20654
   H       19.21539        -0.44943         3.17288
   H       19.84505        -1.81888         4.10355
   H       20.50396        -0.19802         4.36126
   H       13.21769        11.97516         4.00535
   H       18.17628        16.02577         7.16869
   H       13.52444        16.65628         3.51627
   H       10.99205        16.87450         3.02678
   H       18.91259        11.79065         5.11872
   H       21.16171        11.53398         6.36806
   H        8.74192        15.69098         3.56595
   H        8.79560        14.55449         4.92256
   H        9.31655        13.82431         1.99975
   H        7.84532        13.46112         2.90848
   H        9.37490        12.70191         3.36133
   H       22.35446        12.35623         8.54305
   H       21.30862        13.11276         9.75594
   H       22.65297        14.59187         7.43810
   H       23.16954        14.63740         9.12601
   H       21.61244        15.32602         8.65734
   H       16.63963        21.87762         8.14854
   H       24.98380        20.66694         8.26513
   H       22.47814        21.40956         8.32450
   H       26.10113        14.95768         6.66504
   H       27.20995        16.15280         7.40886
   H       26.36785        16.14086         4.46521
   H       27.93173        15.58260         5.08247
   H       27.48187        17.28662         5.22779
*
