# ORCA input file
# SCF done       -420.980084119716          0.000679064947
! wb97x-d3 def2-SVP def2/J RIJCOSX Grid4 TightSCF
%maxcore 5000
%tddft
    Mode sTDA
    Ethresh 5.0
    maxcore 5000
end

%pal
  nprocs 6
  end
* xyz -1 2
   C       -0.89398         5.51918         5.82845
   C       -1.23986         6.16071         7.03133
   C       -0.24139         6.76767         7.82700
   C        1.11033         6.77324         7.48788
   C        1.45924         6.10210         6.29992
   C        0.45773         5.48746         5.50786
   C       -2.53381         6.29107         7.61775
   C       -2.52112         6.98665         8.77185
   S       -0.94218         7.51859         9.23688
   C        2.74834         5.91876         5.74430
   C        2.74990         5.22533         4.56973
   S        1.13712         4.74488         4.08544
   C       -1.90927         4.94179         4.96768
   C        2.08822         7.44510         8.31946
   C        2.12408         7.50684         9.68376
   C        3.18516         8.27801        10.21081
   C        3.94445         8.81504         9.21278
   S        3.39130         8.37818         7.62980
   C       -3.10254         5.49082         4.59612
   C       -3.24936         3.49231         3.48646
   S       -1.70365         3.36319         4.26043
   C        3.88224         4.88734         3.77664
   S        5.46694         5.43950         4.22578
   C        6.17341         4.63883         2.85251
   C        5.20996         3.99455         2.10407
   C        3.92296         4.13758         2.62187
   C        7.58925         4.72234         2.65477
   C        8.31192         4.07391         1.65963
   C        9.70507         4.16592         1.51492
   C       10.51920         4.92427         2.34660
   C        9.80332         5.61393         3.35273
   C        8.39544         5.51051         3.51009
   N       10.25206         6.43634         4.30780
   N        9.18474         6.77957         4.97208
   N        8.05734         6.27257         4.55907
   C       11.94553         5.02592         2.27474
   C        9.24770         7.68411         6.08636
   C       10.34192         7.26147         7.05700
   C       12.84231         4.41140         1.42563
   C       14.17170         4.73479         1.69972
   C       14.31100         5.60578         2.75740
   S       12.76654         6.03442         3.42843
  Cl        5.32650         9.80867         9.39554
  Cl       -3.83230         2.21196         2.51270
   F        7.67699         3.28975         0.76632
   F       10.24565         3.45914         0.50297
   C       -3.87954         4.67571         3.74032
   C       -5.23429         5.04889         3.22830
   C        3.39735         8.51305        11.67186
   C        2.50410         9.65227        12.16554
   C       -6.31651         4.69136         4.24840
   C       17.30376         8.23445         5.77075
   C       16.89368         7.35992         4.74306
   C       17.85395         6.67257         3.95976
   C       19.22563         6.79072         4.15703
   C       19.63582         7.67733         5.17292
   C       18.67688         8.38445         5.94007
   C       15.57358         7.04349         4.34723
   C       15.49936         6.13359         3.33347
   S       17.08588         5.63422         2.78689
   C       20.95709         7.99069         5.56609
   C       21.03396         8.87657         6.60031
   S       19.44943         9.39433         7.13550
   C       16.35889         8.91966         6.62976
   C       20.16600         6.02304         3.36538
   C       20.08267         5.72186         2.03590
   C       21.13255         4.91012         1.54757
   C       22.00696         4.58876         2.54350
   S       21.57544         5.27720         4.07422
   C       16.45640        10.18091         7.14630
   C       14.48811         9.53906         8.12672
   S       14.91664         8.12984         7.21556
   C       22.22754         9.35174         7.21191
   S       23.74551         8.60920         6.80775
   C       24.59579         9.67833         7.88206
   C       23.72673        10.54744         8.50763
   C       22.39425        10.35707         8.13773
   C       26.01619         9.54224         8.00546
   C       26.86707        10.39702         8.69157
   C       28.25263        10.19841         8.77603
   C       28.93099         9.12817         8.20289
   C       28.08854         8.23857         7.48927
   C       26.68493         8.45403         7.39770
   N       28.35715         7.11913         6.79895
   N       27.19757         6.72380         6.34958
   N       26.17196         7.45943         6.66629
   C       30.34054         8.91145         8.32389
   C       27.05519         5.52084         5.57488
   C       25.95258         5.67903         4.53973
   C       31.04519         7.80323         7.90023
   C       32.40728         7.86970         8.18907
   C       32.77183         9.03681         8.82387
   S       31.39833        10.06482         9.08256
  Cl       23.41659         3.62918         2.40170
  Cl       13.04936         9.55797         9.05305
   F       26.37694        11.48513         9.31632
   F       28.94492        11.12014         9.47629
   C       15.39359        10.55188         8.00151
   C       15.26191        11.89870         8.63762
   C       21.22074         4.43267         0.13373
   C       20.26405         3.26215        -0.09791
   C       14.55515        12.87529         7.69619
   C       36.42751        11.87428        10.70653
   C       35.76828        10.75884        10.15241
   C       36.46922         9.54793         9.93272
   C       37.81320         9.37647        10.25246
   C       38.47867        10.50370        10.77861
   C       37.78013        11.72066        10.97994
   C       34.41396        10.66840         9.75186
   C       34.06000         9.44207         9.27250
   S       35.41331         8.32674         9.26976
   C       39.83566        10.61724        11.15730
   C       40.17274        11.84287        11.65482
   S       38.81528        12.94681        11.66093
   C       35.70384        13.09983        10.97916
   C       38.47446         8.09938        10.07292
   C       38.28551         7.18915         9.07140
   C       39.04499         6.00357         9.19994
   C       39.81316         6.03362        10.32671
   S       39.61741         7.49019        11.24315
   C       34.45968        13.23334        11.52604
   C       34.93901        15.44109        11.15092
   S       36.37683        14.65704        10.58035
   C       41.45201        12.22919        12.14282
   S       42.70596        11.03624        12.29986
   C       43.81135        12.22657        12.91769
   C       43.21485        13.46782        12.98823
   C       41.88655        13.46756        12.55874
   C       45.13866        11.81639        13.26886
   C       46.17239        12.64273        13.68323
   C       47.45444        12.17050        14.00601
   C       47.83874        10.83688        13.95077
   C       46.80118         9.96507        13.53413
   C       45.50323        10.45107        13.21029
   N       46.77207         8.63357        13.36246
   N       45.55305         8.37821        12.97489
   N       44.75321         9.39935        12.86604
   C       49.15001        10.35783        14.28123
   C       45.10282         7.03756        12.71689
   C       44.19119         7.00496        11.49936
   C       49.57977         9.05136        14.24813
   C       50.92152         8.90434        14.63034
   C       51.50755        10.09141        14.95117
   S       50.43483        11.41522        14.79494
  Cl       40.88863         4.81646        10.86591
  Cl       34.80844        17.14528        11.07915
   F       45.97949        13.97150        13.78906
   F       48.34969        13.10247        14.39003
   C       34.00760        14.56873        11.63425
   C       32.65851        14.94827        12.15530
   C       39.03911         4.89141         8.20040
   C       40.05950         5.15520         7.09196
   C       31.58147        14.70104        11.09729
   H       -3.41995         5.85804         7.19220
   H       -3.34935         7.22262         9.41090
   H        3.65805         6.27051         6.19432
   H        1.43065         6.98074        10.31422
   H       -3.40803         6.47938         4.88971
   H        5.42633         3.44036         1.21005
   H        3.04282         3.70772         2.17707
   H        8.26065         7.67650         6.55187
   H        9.45720         8.68877         5.70492
   H       10.12097         6.28555         7.48173
   H       10.41785         7.98442         7.86372
   H       11.29529         7.20842         6.53782
   H       12.54754         3.74573         0.63595
   H       15.01177         4.34830         1.14988
   H       -5.42783         4.52003         2.29403
   H       -5.25864         6.12213         3.03057
   H        4.44357         8.76270        11.85490
   H        3.15798         7.59910        12.21850
   H        2.75045        10.57581        11.64698
   H        2.64356         9.80554        13.23272
   H        1.45796         9.42130        11.97848
   H       -6.31011         3.62185         4.44440
   H       -7.29720         4.96916         3.87052
   H       -6.14464         5.21466         5.18637
   H       14.69074         7.47430         4.78114
   H       21.83802         7.59170         5.09890
   H       19.30678         6.10092         1.39602
   H       17.25523        10.85637         6.89987
   H       24.04318        11.29070         9.21565
   H       21.57282        10.93433         8.52412
   H       26.81501         4.69636         6.25540
   H       28.02507         5.32147         5.11458
   H       25.01572         5.92664         5.03079
   H       25.83021         4.75126         3.98921
   H       26.19568         6.47327         3.83884
   H       30.56506         6.98074         7.40381
   H       33.11706         7.09902         7.94560
   H       16.25687        12.27690         8.87786
   H       14.69181        11.81062         9.56390
   H       22.24286         4.12068        -0.08558
   H       20.95872         5.25412        -0.53596
   H       20.53195         2.42421         0.54127
   H       20.31004         2.93689        -1.13417
   H       19.24277         3.55648         0.13203
   H       15.10844        12.97274         6.76503
   H       14.47727        13.85551         8.15962
   H       13.55366        12.51937         7.46628
   H       33.72359        11.49086         9.78933
   H       40.56149         9.83175        11.05980
   H       37.63951         7.36624         8.23091
   H       33.88569        12.39975        11.88924
   H       43.71990        14.34644        13.34422
   H       41.25706        14.33985        12.54498
   H       44.55979         6.67891        13.59805
   H       45.99500         6.42388        12.57914
   H       43.35566         7.68324        11.64911
   H       43.80978         5.99903        11.35146
   H       44.73199         7.31067        10.60736
   H       48.93489         8.24361        13.95734
   H       51.43243         7.95878        14.66644
   H       52.51489        10.26715        15.27338
   H       32.66034        16.00229        12.43601
   H       32.43845        14.35357        13.04416
   H       38.04087         4.80774         7.76753
   H       39.28022         3.95121         8.69933
   H       39.83715         6.09189         6.58616
   H       40.03786         4.35058         6.36133
   H       41.06172         5.21868         7.50923
   H       31.78772        15.28785        10.20527
   H       30.60557        14.98616        11.48130
   H       31.54745        13.65038        10.81860
*
