# ORCA input file
# SCF done       -150.612747475935          0.000246981856
! wb97x-d3 def2-SVP def2/J RIJCOSX Grid4 TightSCF
%maxcore 5000
%tddft
    Mode sTDA
    Ethresh 5.0
    maxcore 5000
end

%pal
  nprocs 6
  end
* xyz -1 2
   C        0.63959         1.47137        -0.16889
   C        1.81830         0.77799        -0.12969
   C        1.86568        -0.62513        -0.09286
   C        0.71344        -1.39703        -0.09734
   C       -0.51852        -0.67949        -0.16101
   C       -0.55937         0.73833        -0.19122
   N       -1.66095        -1.37499        -0.14808
   C       -2.81671        -0.75308        -0.17319
   C       -2.85197         0.67637        -0.28683
   N       -1.74154         1.37649        -0.27056
   F        2.98379         1.44751        -0.11440
   F        3.08467        -1.19283        -0.03269
   C        1.74099        -3.72053         0.04323
   C        1.34693        -5.04881         0.22205
   C       -0.01439        -5.19676         0.34297
   S       -0.82442        -3.65846         0.20050
   C        0.68981        -2.82979         0.01162
   C       -4.00905        -1.59108        -0.04632
   C       -4.07624        -2.78172        -0.76562
   C       -5.16144        -3.63878        -0.66989
   C       -6.20507        -3.30749         0.22047
   C       -6.10952        -2.12474         0.95426
   C       -5.04347        -1.26366         0.82289
   C       -4.09933         1.42413        -0.45552
   C       -4.24801         2.66244         0.15670
   C       -5.42428         3.37107         0.01137
   C       -6.47782         2.88843        -0.75879
   C       -6.31550         1.65559        -1.42636
   C       -5.13303         0.94831        -1.25438
   O       -7.66784         3.54529        -0.89697
   C       -7.84389         4.80510        -0.27981
   C       -9.24013         5.29314        -0.63482
   O       -7.21809         1.03579        -2.23177
   C       -8.33991         1.72074        -2.76430
   C       -8.96554         0.80622        -3.80706
   O       -7.32503        -4.02616         0.48204
   C       -7.70295        -5.15144        -0.29333
   C       -9.05798        -5.61115         0.22420
   O       -5.27523        -4.79463        -1.39688
   C       -4.44143        -5.01212        -2.51980
   C       -3.14068        -5.72871        -2.17397
   C       -0.79025        -6.39206         0.57252
   C       -2.11035        -6.30419         1.03513
   C       -2.87852        -7.41896         1.27359
   C       -2.36619        -8.70492         1.06437
   C       -1.05656        -8.81316         0.59225
   C       -0.30297        -7.68632         0.35723
   C       -3.15242        -9.88734         1.33054
   S       -2.49013       -11.47778         1.06489
   C       -3.94022       -12.22087         1.59762
   C       -4.88021       -11.30843         1.95836
   C       -4.43490        -9.98216         1.80703
   F        0.94892        -7.86995        -0.11542
   H        0.62123         2.54758        -0.18817
   H        2.77033        -3.43177        -0.05785
   H        2.04989        -5.85896         0.28041
   H       -3.25017        -3.01701        -1.41530
   H       -6.91852        -1.90205         1.63164
   H       -5.00157        -0.35842         1.40770
   H       -3.44523         3.05646         0.75854
   H       -5.52141         4.31807         0.51723
   H       -5.04071         0.01473        -1.78550
   H       -7.08958         5.51504        -0.64577
   H       -7.74231         4.71045         0.81001
   H       -9.34130         5.38087        -1.71317
   H       -9.41825         6.26303        -0.17967
   H       -9.98362         4.58798        -0.27343
   H       -8.02411         2.66329        -3.22581
   H       -9.06289         1.94327        -1.97223
   H       -8.24889         0.59310        -4.59565
   H       -9.84074         1.28320        -4.23884
   H       -9.26035        -0.13220        -3.34571
   H       -6.96240        -5.95192        -0.19129
   H       -7.77514        -4.87511        -1.35124
   H       -8.98535        -5.87127         1.27666
   H       -9.39175        -6.47951        -0.33646
   H       -9.78828        -4.81381         0.11608
   H       -4.24291        -4.06682        -3.03805
   H       -5.04101        -5.64784        -3.18041
   H       -2.51427        -5.12102        -1.52749
   H       -2.59518        -5.94891        -3.08759
   H       -3.35703        -6.66157        -1.65931
   H       -2.52690        -5.32392         1.21396
   H       -3.88740        -7.29251         1.63154
   H       -0.61710        -9.78123         0.40503
   H       -4.00742       -13.29057         1.61120
   H       -5.85763       -11.57166         2.32155
   H       -5.04673        -9.13197         2.04722
*
