# ORCA input file
# SCF done       -163.269303947044          0.000497302139
! wb97x-d3 def2-SVP def2/J RIJCOSX Grid4 TightSCF
%maxcore 5000
%tddft
    Mode sTDA
    Ethresh 5.0
    maxcore 5000
end

%pal
  nprocs 6
  end
* xyz -1 2
   C        0.64551         1.52201        -0.07323
   C        1.81629         0.82359         0.04615
   C        1.85239        -0.57898         0.12880
   C        0.69574        -1.34079         0.07843
   C       -0.52263        -0.61919        -0.08516
   C       -0.55662         0.79654        -0.14027
   N       -1.66359        -1.31389        -0.14225
   C       -2.81812        -0.69448        -0.23409
   C       -2.84404         0.73753        -0.33883
   N       -1.73346         1.43521        -0.27805
   F        2.98342         1.48667         0.10398
   F        3.05905        -1.15398         0.27745
   C        1.66847        -3.66960         0.41481
   C        1.23640        -4.98324         0.59873
   C       -0.13568        -5.10397         0.58301
   S       -0.90119        -3.55764         0.31562
   C        0.63804        -2.76941         0.24044
   C       -4.00346        -1.54749        -0.17862
   C       -4.00163        -2.74199        -0.89755
   C       -5.05702        -3.63544        -0.83302
   C       -6.12357        -3.35842         0.05035
   C       -6.11639        -2.15482         0.75337
   C       -5.08923        -1.24470         0.63530
   C       -4.07955         1.49425        -0.54591
   C       -4.24101         2.72599         0.07675
   C       -5.39931         3.45248        -0.11485
   C       -6.42041         2.99743        -0.94353
   C       -6.25724         1.75580        -1.59520
   C       -5.09083         1.03259        -1.38076
   O       -7.56993         3.70079        -1.16798
   C       -7.75606         4.95174        -0.53575
   C       -9.10792         5.48860        -0.98043
   O       -7.11890         1.15974        -2.45904
   C       -8.44089         1.63308        -2.65663
   C       -9.14401         0.62076        -3.54858
   O       -7.20580        -4.14242         0.26928
   C       -7.15092        -5.54321         0.03799
   C       -8.29175        -6.17550         0.82122
   O       -5.15048        -4.76567        -1.60092
   C       -4.23513        -4.98391        -2.65513
   C       -2.95065        -5.67291        -2.20451
   C       -0.92939        -6.30013         0.72576
   C       -0.43160        -7.58386         0.45834
   C       -1.20948        -8.72258         0.56682
   C       -2.55835        -8.68510         0.94590
   C       -3.05187        -7.40400         1.22760
   C       -2.27556        -6.26511         1.12086
   C       -3.37929        -9.87126         1.04081
   S       -2.67049       -11.44695         1.25780
   C       -4.21523       -12.17814         1.29044
   C       -5.22100       -11.27560         1.13048
   C       -4.74984        -9.96009         0.99157
   F       -2.85713        -5.09574         1.43012
   F       -0.63712        -9.89983         0.26614
   F        0.83722        -7.73999         0.05075
   F       -4.32275        -7.24638         1.63550
   H        0.63647         2.59767        -0.11876
   H        2.70696        -3.39658         0.41150
   H        1.91500        -5.79968         0.76242
   H       -3.15209        -2.93840        -1.52976
   H       -6.95322        -1.96071         1.40534
   H       -5.10634        -0.32998         1.20647
   H       -3.46083         3.10346         0.71760
   H       -5.50205         4.39972         0.38932
   H       -4.99171         0.09960        -1.91153
   H       -6.95795         5.64714        -0.82930
   H       -7.73716         4.83069         0.55612
   H       -9.12413         5.60839        -2.06026
   H       -9.29373         6.45100        -0.51259
   H       -9.89557         4.79581        -0.69704
   H       -8.42683         2.61763        -3.13678
   H       -8.96048         1.71805        -1.69584
   H       -8.62106         0.53625        -4.49734
   H      -10.16690         0.93749        -3.73137
   H       -9.15058        -0.35464        -3.06963
   H       -6.19072        -5.93982         0.38059
   H       -7.26021        -5.75469        -1.03157
   H       -8.16462        -5.98636         1.88360
   H       -8.30543        -7.24817         0.65005
   H       -9.24052        -5.75152         0.50368
   H       -4.01244        -4.04263        -3.17124
   H       -4.77476        -5.63749        -3.34831
   H       -2.41275        -5.05960        -1.48706
   H       -2.31151        -5.85084        -3.06495
   H       -3.18558        -6.62749        -1.73887
   H       -4.29204       -13.23924         1.42227
   H       -6.26307       -11.53887         1.11311
   H       -5.39958        -9.11822         0.84397
*
