# ORCA input file
# SCF done       -431.672828680269          0.000318469656
! wb97x-d3 def2-SVP def2/J RIJCOSX Grid4 TightSCF
%maxcore 5000
%tddft
    Mode sTDA
    Ethresh 5.0
    maxcore 5000
end

%pal
  nprocs 6
  end
* xyz -1 2
   C        1.03239         5.84576        -4.02947
   C        0.55542         5.47456        -5.29950
   C        1.39266         4.77204        -6.19723
   C        2.70068         4.40044        -5.89825
   C        3.18225         4.78563        -4.63178
   C        2.34449         5.49276        -3.73449
   C       -0.73018         5.72128        -5.86570
   C       -0.86690         5.21137        -7.10567
   S        0.55268         4.41017        -7.68286
   C        4.46645         4.56760        -4.08126
   C        4.61561         5.03563        -2.80820
   S        3.15625         5.81222        -2.22342
   C        0.21980         6.55356        -3.05815
   C        3.50977         3.65121        -6.83738
   C        0.59476         7.59350        -2.25607
   C       -0.42896         8.03054        -1.39192
   C       -1.58216         7.31963        -1.51343
   S       -1.42666         6.09167        -2.72711
   C        3.58016         3.79643        -8.19516
   C        4.46996         2.89349        -8.80897
   C        5.06839         2.04093        -7.93297
   S        4.54281         2.34883        -6.31285
   C       -2.87214         7.50908        -0.79268
   C       -3.94464         8.09344        -1.71399
   C        6.10420         1.00349        -8.19737
   C        7.48746         1.49144        -7.75885
   C        5.79187         4.93527        -2.01911
   C        5.95348         5.37385        -0.71956
   C        7.21444         5.14742        -0.18519
   C        8.13911         4.52159        -1.01476
  Se        7.35326         4.14251        -2.68664
   C        9.47065         4.25809        -0.61924
   S        9.92562         4.70696         1.01227
   C       11.58784         4.19845         0.79703
   C       11.76404         3.70354        -0.49169
   C       10.56879         3.71105        -1.27999
   C       13.02750         3.23453        -1.00696
   C       12.97740         2.66320        -2.34146
   C       11.77411         2.62488        -3.11489
   C       10.52247         3.18200        -2.62180
   C       14.05153         2.09379        -2.98372
   S       13.58219         1.49221        -4.53477
   C       11.94363         2.00958        -4.33093
   C       12.45808         4.33009         1.90432
   C       12.01662         4.71879         3.16575
   C       12.97992         4.81057         4.16012
  Se       14.32279         4.04703         1.93076
   O       14.08630         3.31011        -0.37073
   O        9.49462         3.18456        -3.31032
   C       15.44427         1.97281        -2.48373
   C       16.35746         1.19654        -3.42106
   C       10.95511         1.80054        -5.42009
   C       10.80318         3.06820        -6.26564
   C       14.26559         4.52407         3.73859
   C       17.38451         4.54157         7.67241
   C       16.91284         4.55875         6.34345
   C       17.83024         4.54649         5.26259
   C       19.21045         4.54215         5.42523
   C       19.67990         4.55272         6.75471
   C       18.76495         4.54150         7.83716
   C       15.57007         4.58496         5.89458
   C       15.44354         4.54226         4.53578
   S       16.99730         4.49761         3.73238
   C       21.01805         4.56392         7.20457
   C       21.15372         4.50668         8.56197
   S       19.59849         4.47785         9.36994
   C       16.49904         4.50084         8.81903
   C       20.10641         4.51853         4.28732
   C       16.63572         5.16012        10.00822
   C       15.61871         4.85954        10.93560
   C       14.71060         3.95841        10.47293
   S       15.09178         3.47289         8.85350
   C       19.97033         5.17378         3.09467
   C       21.03012         4.93227         2.19907
   C       21.97065         4.07887         2.68836
   S       21.55993         3.55637         4.28648
   C       13.49636         3.42732        11.15350
   C       12.21751         3.99997        10.53901
   C       23.25396         3.64458         2.06893
   C       24.44054         4.36896         2.71028
   C       22.38669         4.46467         9.26321
   C       22.56457         4.32542        10.62574
   C       23.89075         4.28955        11.03450
   C       24.85370         4.40740        10.03727
  Se       24.02183         4.57949         8.35425
   C       26.24213         4.40084        10.30326
   S       26.73985         4.13871        11.96258
   C       28.44265         4.30075        11.58400
   C       28.59846         4.55930        10.22540
   C       27.36518         4.58446         9.49863
   C       29.87398         4.79485         9.59377
   C       29.82920         4.95604         8.15088
   C       28.60330         4.93046         7.41342
   C       27.31363         4.76222         8.06759
   C       30.93640         5.12604         7.35371
   S       30.47595         5.24083         5.69163
   C       28.79437         5.06430         6.05984
   C       29.36553         4.11908        12.64024
   C       28.97893         3.70201        13.91061
   C       29.99001         3.54418        14.84687
  Se       31.23411         4.37437        12.58463
   O       30.93697         4.86312        10.22398
   O       26.25488         4.75824         7.42740
   C       32.35521         5.20411         7.78383
   C       33.33175         5.34270         6.62547
   C       27.78342         5.10937         4.97186
   C       27.15042         6.49991         4.86938
   C       31.25555         3.85358        14.38145
   C       34.61179         2.76572        17.94783
   C       34.04101         3.29224        16.77096
   C       34.83843         4.03004        15.86029
   C       36.18807         4.29504        16.06206
   C       36.74753         3.80307        17.25948
   C       35.95490         3.05208        18.16322
   C       32.69824         3.19035        16.33468
   C       32.46649         3.77741        15.12375
   S       33.91159         4.51190        14.46414
   C       38.07184         3.95134        17.72825
   C       38.32179         3.31545        18.91026
   S       36.89400         2.50921        19.53004
   C       33.86708         1.94166        18.87862
   C       36.96980         5.02685        15.08663
   C       33.92857         1.94520        20.24365
   C       33.11257         0.96589        20.84366
   C       32.43782         0.19692        19.94686
   S       32.78851         0.68982        18.32283
   C       36.58827         6.10350        14.33499
   C       37.59941         6.57078        13.47295
   C       38.74977         5.84691        13.54262
   S       38.60388         4.56318        14.69468
   C       31.47229        -0.90733        20.20776
   C       30.03716        -0.47741        19.89695
   C       40.04224         6.07321        12.83724
   C       41.08664         6.66581        13.78677
   C       39.56819         3.28044        19.58811
   C       39.84416         2.62690        20.77282
   C       41.15960         2.73851        21.20249
   C       42.01773         3.47903        20.39675
  Se       41.08321         4.14392        18.90074
   C       43.38633         3.66552        20.70689
   S       43.97061         2.95543        22.19444
   C       45.59467         3.52573        21.93889
   C       45.68939         4.22438        20.74933
   C       44.43746         4.31029        20.05438
   C       46.93712         4.74747        20.17913
   C       46.77599         5.38554        18.87380
   C       45.51422         5.51688        18.21439
   C       44.28605         4.99359        18.79138
   C       47.81520         5.92328        18.15423
   S       47.24693         6.58794        16.66077
   C       45.60976         6.14426        16.99594
   C       46.54687         3.19620        22.95575
   C       47.64836         3.88700        23.39098
   C       48.33996         3.29398        24.46460
  Se       46.29629         1.62888        23.98373
   O       48.02889         4.65350        20.72096
   O       43.19342         5.12697        18.22782
   C       49.25174         5.97022        18.52838
   C       50.13180         6.61708        17.46920
   C       44.53094         6.49296        16.03573
   C       43.82649         7.78610        16.45606
   C       47.81273         2.12400        24.91729
   H       -1.50879         6.26202        -5.36051
   H       -1.72496         5.25810        -7.74726
   H        5.28058         4.08570        -4.59799
   H        1.56444         8.05497        -2.30608
   H       -0.30995         8.84523        -0.69958
   H        3.04200         4.55388        -8.73564
   H        4.65849         2.87808        -9.86797
   H       -2.70519         8.18139         0.05159
   H       -3.22068         6.54953        -0.40228
   H       -3.62124         9.05385        -2.10927
   H       -4.87400         8.23640        -1.16846
   H       -4.13052         7.42074        -2.54831
   H        6.11410         0.77736        -9.26583
   H        5.85851         0.08799        -7.65402
   H        7.75341         2.39704        -8.30012
   H        8.23748         0.73015        -7.95956
   H        7.49003         1.71284        -6.69369
   H        5.16008         5.85354        -0.16926
   H        7.47606         5.44441         0.81815
   H       10.97484         4.92690         3.35264
   H       12.74451         5.10231         5.16987
   H       15.41588         1.50111        -1.49640
   H       15.83837         2.98073        -2.31746
   H       15.98630         0.18414        -3.56686
   H       17.35953         1.14001        -3.00456
   H       16.41415         1.68396        -4.39243
   H        9.98666         1.56014        -4.97743
   H       11.28014         0.97194        -6.05241
   H       10.39818         3.87022        -5.65483
   H       10.12041         2.88148        -7.08927
   H       11.76526         3.37761        -6.66869
   H       14.72326         4.62199         6.55403
   H       21.88062         4.61427         6.56012
   H       17.42180         5.86717        10.20239
   H       15.56696         5.29596        11.91748
   H       19.15715         5.84253         2.87818
   H       21.09112         5.37958         1.22263
   H       13.54618         3.68994        12.21235
   H       13.47484         2.33757        11.07154
   H       12.21411         5.08510        10.61531
   H       11.34349         3.61179        11.05594
   H       12.15031         3.72628         9.48839
   H       23.22239         3.86260         0.99921
   H       23.38072         2.56691         2.19701
   H       24.34032         5.44387         2.57583
   H       25.37283         4.04493         2.25415
   H       24.48079         4.15744         3.77668
   H       21.73609         4.24515        11.31101
   H       24.17103         4.18237        12.07051
   H       27.94434         3.50272        14.14174
   H       29.79817         3.22382        15.85709
   H       32.58489         4.31145         8.37444
   H       32.45926         6.04799         8.47344
   H       33.25282         4.49067         5.95328
   H       34.35057         5.39351         6.99995
   H       33.12682         6.24788         6.05720
   H       26.99600         4.38603         5.19199
   H       28.25830         4.84997         4.02359
   H       26.61133         6.72688         5.78489
   H       26.44910         6.52380         4.04030
   H       27.91363         7.25813         4.70720
   H       31.92851         2.69323        16.89475
   H       38.84003         4.51626        17.22567
   H       34.51391         2.65078        20.80494
   H       33.03441         0.83377        21.90839
   H       35.62611         6.57431        14.42409
   H       37.47477         7.41806        12.82192
   H       31.55047        -1.19969        21.25705
   H       31.72718        -1.77302        19.59107
   H       29.75844         0.37928        20.50668
   H       29.34625        -1.29108        20.10288
   H       29.94654        -0.20100        18.84878
   H       39.87381         6.75533        12.00108
   H       40.41692         5.12706        12.43917
   H       40.73695         7.61705        14.18249
   H       42.02476         6.82850        13.26151
   H       41.26507         5.99042        14.62078
   H       39.09451         2.07388        21.31552
   H       41.50763         2.27311        22.11134
   H       47.95830         4.81471        22.94670
   H       49.22177         3.73914        24.89350
   H       49.58620         4.94817        18.73266
   H       49.34194         6.50658        19.47852
   H       50.07399         6.06461        16.53354
   H       51.16723         6.62925        17.79901
   H       49.81680         7.64190        17.28255
   H       43.79630         5.68573        16.02136
   H       44.95686         6.61345        15.03767
   H       43.34793         7.64724        17.42150
   H       43.06449         8.04433        15.72646
   H       44.53912         8.60533        16.52629
   H       48.19662         1.51583        25.71698
*
