# ORCA input file
# SCF done       -610.962696215327          0.000896071661
! wb97x-d3 def2-SVP def2/J RIJCOSX Grid4 TightSCF
%maxcore 5000
%tddft
    Mode sTDA
    Ethresh 5.0
    maxcore 5000
end

%pal
  nprocs 6
  end
* xyz -1 2
   C       -3.61230         2.26024         3.60139
   C       -3.63551         1.18657         2.68810
   C       -2.42447         0.57933         2.27571
   C       -1.17142         0.98702         2.71869
   C       -1.14762         2.09449         3.58945
   C       -2.35800         2.70407         4.00262
   C       -4.76247         0.59246         2.06838
   C       -4.45081        -0.44815         1.24293
   S       -2.72331        -0.74420         1.18203
   C       -0.01783         2.74594         4.13700
   C       -0.32740         3.79187         4.95664
   S       -2.05726         4.03316         5.09140
   C       -4.84118         2.84077         4.10291
   C        0.03346         0.29411         2.30930
   C       -5.97408         2.19162         4.50753
   C       -6.98540         3.06362         4.95620
   C       -6.63677         4.37729         4.88773
   S       -5.02655         4.56287         4.27473
   C        0.33827        -0.21640         1.07878
   C        1.58674        -0.86770         1.03715
   C        2.23487        -0.87707         2.23348
   S        1.30747        -0.05755         3.44540
   C       -7.42469         5.57168         5.30219
   C       -6.87637         6.17054         6.59908
   C        3.57622        -1.43529         2.56305
   C        4.59754        -0.32088         2.80004
   C        0.58094         4.64248         5.64493
   S        2.29080         4.35713         5.56046
   C        2.62464         5.74024         6.57733
   C        1.44834         6.35688         6.94087
   C        0.30655         5.74346         6.42399
   C        3.98462         6.06892         6.90216
   C        5.02535         5.25327         6.47620
   C        6.35275         5.51906         6.76894
   C        6.74749         6.63216         7.49669
   C        5.71951         7.52245         7.92206
   C        4.34469         7.22826         7.65236
   N        6.03765         8.67546         8.52665
   C        5.09741         9.49727         8.91872
   C        3.72649         9.14610         8.75865
   N        3.39869         8.05038         8.12184
   C        8.13867         6.86683         7.78257
   C        2.62406         9.98399         9.25782
   C        5.52217        10.77500         9.51592
   C        1.53454        10.28862         8.43574
   C        0.51301        11.11237         8.86988
   C        0.50191        11.68979        10.15317
   C        1.58745        11.37012        10.97426
   C        2.60826        10.53765        10.53212
   C        4.98254        11.99769         9.13601
   C        5.35677        13.19771         9.72825
   C        6.31742        13.24025        10.74320
   C        6.86733        12.00074        11.11849
   C        6.48488        10.81135        10.52769
   S        9.36936         5.99707         6.89576
   C       10.12324         7.64608         8.70018
   C        8.71817         7.69879         8.70554
   F        4.75181        14.32048         9.28313
   F        1.68902        11.85737        12.23011
   C       10.61503         6.77850         7.77582
   O       -0.54517        12.46986        10.43295
   C       -0.66343        13.12900        11.69086
   C       -1.95005        13.93478        11.64603
   F       -0.51115        11.38509         8.05087
   F        7.79295        11.99153        12.08686
   O        6.78023        14.30686        11.40022
   C        6.31232        15.62015        11.10471
   C        7.06704        16.57147        12.01689
   F        4.07678        12.05214         8.14490
   F        7.03211         9.67624        10.96484
   F        1.48191         9.80633         7.19404
   F        3.59453        10.25379        11.39985
   C      -19.90240        -3.63554        -0.31041
   C      -21.11290        -4.09297        -0.87078
   C      -21.10248        -4.81128        -2.09131
   C      -19.94590        -5.08695        -2.81093
   C      -18.74429        -4.57780        -2.27878
   C      -18.74957        -3.87105        -1.05082
   C      -22.42725        -3.92504        -0.36934
   C      -23.38785        -4.52198        -1.13276
   S      -22.70840        -5.31973        -2.53865
   C      -17.44616        -4.66443        -2.83153
   C      -16.47698        -4.08775        -2.05962
   S      -17.13618        -3.38988        -0.59658
   C      -19.87727        -2.98178         0.98165
   C      -19.99235        -5.86859        -4.03033
   C      -20.57613        -3.31608         2.10822
   C      -20.30294        -2.47394         3.20374
   C      -19.40631        -1.49024         2.91979
   S      -18.86419        -1.59726         1.27765
   C      -20.93007        -5.82602        -5.02354
   C      -20.70035        -6.76148        -6.05153
   C      -19.60080        -7.53572        -5.84588
   S      -18.80900        -7.10367        -4.36642
   C      -18.85180        -0.44756         3.82775
   C      -17.40738        -0.77006         4.21733
   C      -19.03201        -8.59642        -6.72413
   C      -17.75135        -8.11878        -7.41268
   C      -15.08483        -4.02525        -2.35402
   S      -13.93386        -3.35392        -1.24440
   C      -12.60807        -3.68777        -2.33320
   C      -13.07749        -4.27601        -3.48667
   C      -14.45698        -4.46685        -3.50024
   C      -11.26222        -3.34792        -1.96770
   C      -11.00691        -2.56352        -0.84913
   C       -9.72422        -2.22887        -0.44869
   C       -8.59556        -2.64445        -1.14282
   C       -8.80817        -3.41561        -2.32321
   C      -10.13093        -3.79648        -2.71382
   N       -7.77358        -3.73554        -3.11211
   C       -7.96113        -4.46368        -4.18297
   C       -9.25502        -4.98363        -4.47585
   N      -10.28823        -4.61567        -3.76195
   C       -7.27724        -2.30034        -0.69003
   C       -9.48383        -5.92719        -5.58263
   C       -6.80254        -4.72080        -5.05461
   C       -8.67208        -7.04143        -5.79797
   C       -8.85901        -7.88009        -6.87950
   C       -9.87954        -7.67113        -7.82481
   C      -10.70483        -6.56589        -7.59364
   C      -10.50577        -5.72414        -6.50567
   C       -5.59483        -5.17989        -4.53780
   C       -4.50619        -5.48425        -5.34643
   C       -4.56551        -5.34379        -6.73682
   C       -5.78428        -4.86573        -7.25155
   C       -6.86034        -4.56406        -6.43969
   S       -7.04339        -1.00493         0.45985
   C       -4.97937        -2.29168        -0.37541
   C       -6.07110        -2.87533        -1.01741
   F       -3.38750        -5.92504        -4.73556
   F      -11.72874        -6.27302        -8.42168
   C       -5.32388        -1.25284         0.45959
   O       -9.93908        -8.55463        -8.82409
   C      -10.90191        -8.42722        -9.86809
   C      -10.64065        -9.55798       -10.84775
   F       -8.04427        -8.93217        -7.04680
   F       -5.89401        -4.70553        -8.57867
   O       -3.61346        -5.60215        -7.63647
   C       -2.34895        -6.13197        -7.24399
   C       -1.54370        -6.33704        -8.51519
   F       -5.46584        -5.37892        -3.22497
   F       -7.97922        -4.09056        -7.01288
   F       -7.69077        -7.33253        -4.92828
   F      -11.31658        -4.67181        -6.38168
   C      -36.08728         0.98949         8.26260
   C      -35.77320         1.20917         9.61556
   C      -34.49947         0.85673        10.11629
   C      -33.49712         0.28774         9.33387
   C      -33.82503         0.03353         7.98821
   C      -35.10620         0.37767         7.49162
   C      -36.60582         1.76182        10.63348
   C      -35.98687         1.85365        11.82706
   S      -34.35982         1.26670        11.80690
   C      -33.02168        -0.57052         6.98925
   C      -33.63516        -0.67061         5.77574
   S      -35.26241        -0.02225         5.80257
   C      -37.35900         1.40960         7.70623
   C      -32.19314        -0.01175         9.88937
   C      -38.01152         2.59399         7.89947
   C      -39.22479         2.68454         7.18792
   C      -39.50897         1.57102         6.45973
   S      -38.26056         0.38089         6.63006
   C      -31.90055        -0.51769        11.12503
   C      -30.51870        -0.65478        11.36101
   C      -29.74622        -0.23991        10.32056
   S      -30.72705         0.31924         9.00676
   C      -40.67028         1.31810         5.56143
   C      -40.25504         1.39361         4.09056
   C      -28.26235        -0.27072        10.19202
   C      -27.81379        -1.37802         9.23555
   C      -33.11086        -1.22217         4.57322
   S      -31.46233        -1.75977         4.47539
   C      -31.66915        -2.23881         2.80839
   C      -32.95168        -1.97526         2.38687
   C      -33.75756        -1.40260         3.37202
   C      -30.56469        -2.78445         2.07070
   C      -29.25774        -2.59974         2.50107
   C      -28.16922        -3.07650         1.79061
   C      -28.30024        -3.76973         0.59325
   C      -29.62810        -4.00393         0.12528
   C      -30.75345        -3.53710         0.87507
   N      -29.83794        -4.63292        -1.03862
   C      -31.05603        -4.89215        -1.44049
   C      -32.16981        -4.55313        -0.61923
   N      -31.99081        -3.86769         0.48114
   C      -27.13852        -4.20513        -0.12934
   C      -33.54464        -4.95071        -0.96609
   C      -31.21759        -5.56059        -2.74232
   C      -33.87328        -6.25051        -1.35168
   C      -35.15594        -6.59385        -1.73219
   C      -36.20937        -5.66174        -1.74946
   C      -35.87995        -4.36418        -1.34409
   C      -34.58574        -4.02748        -0.96540
   C      -30.47349        -6.69261        -3.06330
   C      -30.65116        -7.38667        -4.25422
   C      -31.59436        -6.98080        -5.20414
   C      -32.32809        -5.82448        -4.88235
   C      -32.14389        -5.13994        -3.69675
   S      -25.54648        -3.67666         0.37002
   C      -25.73862        -5.20709        -1.68621
   C      -27.04460        -5.01757        -1.23645
   F      -29.87684        -8.47199        -4.45801
   F      -36.80832        -3.38650        -1.30822
   C      -24.79565        -4.54536        -0.93211
   O      -37.39488        -6.12942        -2.14711
   C      -38.53478        -5.27732        -2.23687
   C      -39.68137        -6.12958        -2.75216
   F      -35.41824        -7.85573        -2.10326
   F      -33.23798        -5.38401        -5.76371
   O      -31.88315        -7.54727        -6.37802
   C      -31.24476        -8.75246        -6.79493
   C      -31.85069        -9.13091        -8.13511
   F      -29.57500        -7.16614        -2.19801
   F      -32.86943        -4.03008        -3.48126
   F      -32.93333        -7.21031        -1.33907
   F      -34.34871        -2.75852        -0.62832
   H       -5.77143         0.93774         2.20432
   H        0.99912         2.47064         3.92477
   H       -6.06354         1.12000         4.52403
   H       -7.94097         2.72524         5.31660
   H       -0.29479        -0.09777         0.21822
   H        1.98838        -1.31844         0.14680
   H       -8.46619         5.27498         5.44357
   H       -7.38724         6.32893         4.51523
   H       -6.91522         5.43613         7.40065
   H       -7.46237         7.03815         6.89201
   H       -5.84197         6.47768         6.46224
   H        3.90533        -2.06831         1.73627
   H        3.50770        -2.05370         3.46172
   H        4.68939         0.30271         1.91358
   H        5.57183        -0.74438         3.03053
   H        4.28401         0.30560         3.63218
   H        1.43102         7.23088         7.56124
   H       -0.69708         6.08846         6.60017
   H        4.78947         4.36886         5.90233
   H        7.10951         4.83174         6.41944
   H       10.74308         8.22770         9.35883
   H        8.14518         8.31058         9.37280
   H       11.63784         6.54293         7.55718
   H        0.19691        13.78853        11.85042
   H       -0.70062        12.39062        12.49957
   H       -1.90962        14.65515        10.83397
   H       -2.08451        14.46145        12.58596
   H       -2.79690        13.27488        11.48078
   H        5.23431        15.68411        11.29044
   H        6.50725        15.86057        10.05367
   H        6.87956        16.31762        13.05630
   H        6.74104        17.59056        11.83237
   H        8.13460        16.49769        11.83023
   H      -22.66371        -3.36098         0.51469
   H      -17.23532        -5.13121        -3.77464
   H      -21.23121        -4.16716         2.16348
   H      -20.75893        -2.59507         4.17064
   H      -21.74121        -5.12094        -5.03835
   H      -21.33527        -6.85832        -6.91447
   H      -19.47333        -0.39442         4.72439
   H      -18.88020         0.52593         3.33181
   H      -17.35820        -1.73045         4.72595
   H      -17.01516        -0.00357         4.88112
   H      -16.78092        -0.81751         3.32938
   H      -19.77725        -8.86438        -7.47644
   H      -18.80863        -9.48658        -6.12996
   H      -17.95145        -7.23471        -8.01492
   H      -17.35780        -8.89899        -8.05959
   H      -16.99614        -7.86822        -6.67044
   H      -12.42904        -4.54491        -4.29545
   H      -14.98512        -4.90855        -4.32509
   H      -11.84372        -2.20824        -0.26517
   H       -9.59359        -1.62655         0.43876
   H       -3.96080        -2.61198        -0.50619
   H       -5.99402        -3.70509        -1.69035
   H      -10.79081        -7.45665       -10.36358
   H      -11.91380        -8.50291        -9.45469
   H       -9.63532        -9.47653       -11.25115
   H      -11.35767        -9.50849       -11.66159
   H      -10.73515       -10.51625       -10.34472
   H       -2.48910        -7.08388        -6.72031
   H       -1.83929        -5.42895        -6.57603
   H       -2.06219        -7.02446        -9.17753
   H       -0.56883        -6.74585        -8.26724
   H       -1.41410        -5.39007        -9.03161
   H      -37.62679         2.05254        10.46748
   H      -36.38504         2.22487        12.75113
   H      -32.02503        -0.93685         7.15511
   H      -37.61301         3.39314         8.49906
   H      -39.86451         3.54914         7.21709
   H      -32.65218        -0.81881        11.83196
   H      -30.11213        -1.04634        12.27674
   H      -41.44260         2.06284         5.76554
   H      -41.08546         0.32809         5.76564
   H      -39.85030         2.37700         3.86226
   H      -41.11120         1.21074         3.44598
   H      -39.49161         0.64892         3.87738
   H      -27.82809        -0.43818        11.18005
   H      -27.90409         0.69185         9.81828
   H      -28.15263        -2.34768         9.59391
   H      -26.72946        -1.39446         9.15906
   H      -28.23074        -1.21093         8.24470
   H      -33.28155        -2.17579         1.38724
   H      -34.78556        -1.12278         3.22309
   H      -29.08610        -2.05344         3.41723
   H      -27.17655        -2.89173         2.17515
   H      -25.47473        -5.81154        -2.53614
   H      -27.90596        -5.46235        -1.69231
   H      -38.33067        -4.45076        -2.92613
   H      -38.77423        -4.86761        -1.24940
   H      -39.43388        -6.53606        -3.72863
   H      -40.57842        -5.52342        -2.83390
   H      -39.86775        -6.95492        -2.07083
   H      -31.42039        -9.54284        -6.05709
   H      -30.16584        -8.58992        -6.89359
   H      -32.92145        -9.28100        -8.03076
   H      -31.39444       -10.04784        -8.49556
   H      -31.68108        -8.33824        -8.85830
*
