198
 SCF done       -327.732294005158          0.000775975045
C           1.00911026189316    0.80603839175381   -0.11313891082415
C           1.22475948783614   -0.59180659521151   -0.03937062105006
C           0.19733283567572   -1.52174188606702    0.07578072741717
C          -1.11055139993454   -1.00066171224365    0.13345971163935
C          -1.32752149701384    0.39599409636786    0.04432626333209
C          -0.30062160080379    1.32540378723378   -0.08472064191863
C          -2.32710887798906   -1.71353214680859    0.26393022436995
C          -3.43547637083753   -0.92229498500650    0.22415784828131
S          -3.03076500451920    0.77306371495051    0.05891267437416
C           2.22747109062684    1.51888324416375   -0.22554519833395
C           3.32995056454724    0.72053836291235   -0.28618035739472
S           2.92110910031274   -0.97853063659204   -0.17019938881697
C          -0.58218268566532    2.74132437494876   -0.20606472599116
C           0.46906426587085   -2.94459151305450    0.10399304533979
C          -1.53944740486936    3.46678023283096    0.44715526199607
C          -1.56613450820573    4.82425612954945    0.07248047185864
C          -0.64710557006700    5.14334650216619   -0.87904118346618
S           0.28780574434904    3.75555923527088   -1.32517411278718
C           1.49053646197687   -3.59651261198477    0.73636304779791
C           1.47379184621792   -4.99076272634998    0.53466743745722
C           0.45682294911902   -5.41186192385534   -0.26546754699842
S          -0.51758733440268   -4.07620457551119   -0.78096111305085
C          -0.35326048509071    6.47257074734057   -1.48399548738164
C           0.97745581206943    7.03052334014126   -0.97421153074819
C           0.10001768292168   -6.80009474369356   -0.67189273175188
C          -1.23109831544507   -7.23457829631597   -0.05542554885175
C          -7.12020397129939   -1.31568186342845    0.17554905940909
C          -6.88470442285947   -2.68738363249992    0.44077351232768
C          -7.89987774001817   -3.62077827899921    0.61495634521865
C          -9.21866661622397   -3.14616058441778    0.46036032703557
C          -9.45300980346774   -1.77552585746692    0.19305493344488
C          -8.43867750610170   -0.83571925124312    0.04457509798976
C         -10.41978412427589   -3.89567242013158    0.46906900408773
C         -11.53767462139126   -3.14731040394767    0.23867815815465
S         -11.15610817198485   -1.45227830974473    0.00293200737160
C          -5.91235034399610   -0.57938270963893    0.10921966833123
C          -4.79556303316756   -1.34098110468754    0.28180592244007
S          -5.17917637606118   -3.02541200681380    0.56260101649642
C          -8.74157721718895    0.54782628511079   -0.25978930318771
C          -7.63478397719910   -5.00213044402792    0.95850047933251
C          -9.76637432720582    1.31168856594355    0.22518046689826
C          -9.80214237331400    2.61031721880098   -0.31929596929290
C          -8.82227597412963    2.84267195005905   -1.23452332357796
S          -7.81469602816002    1.44753683954248   -1.42951124025499
C          -8.30302842652680   -5.78819072159022    1.85623708095482
C          -7.76442980623266   -7.08429781297103    1.97233906312784
C          -6.69288056658551   -7.29953468135359    1.16116377184441
S          -6.31625505991474   -5.88214354082540    0.23873581877790
C          -8.52688416473603    4.09386554316880   -1.98710621753521
C          -7.26266519033120    4.77470566275503   -1.45799820732975
C          -5.84415011243789   -8.51814534727624    1.04441788786627
C          -4.51897977964504   -8.33426411976619    1.78754456213655
C           9.07639935006810    2.93426131935656   -1.03443502934102
C           9.29572955967712    1.53756503703677   -1.12935929001063
C           8.28038067552123    0.59372798456512   -1.03698414217546
C           6.98510276093845    1.09048579930893   -0.79084443184118
C           6.76401967203540    2.48625722459104   -0.70326746196428
C           7.77419678120409    3.43404927986708   -0.83022903074565
C           5.78832677688332    0.35326237603643   -0.61238718880951
C           4.68378033290130    1.13400855353642   -0.44608986990015
S           5.07285596697544    2.84202198884977   -0.47080909112230
C          10.28137377111710    3.66420896029473   -1.16636306012757
C          11.37737849806957    2.88196303719205   -1.38845355508389
S          10.97493775331920    1.17740297791029   -1.42651445950403
C           7.48027753648657    4.85118082271055   -0.77055793146138
C           8.51769390377311   -0.82409152570005   -1.21840372471831
C           6.59034539283422    5.49140689325835    0.04632670029867
C           6.51834362458269    6.87916409256092   -0.18286118670970
C           7.33460503373978    7.30780335660451   -1.18369180173546
S           8.23011532993262    5.98761786840917   -1.85885680899503
C           7.76900797627928   -1.71859639711064   -1.93058737236622
C           8.29401193463232   -3.02572271443415   -1.91062828151747
C           9.43988878750503   -3.13820093416206   -1.18538717863516
S           9.89954949221232   -1.61065757557175   -0.50820414638681
C           7.55127312386571    8.69566655146665   -1.67933851252970
C           8.93301475313465    9.21790552938162   -1.28032178942679
C          10.24473199734650   -4.35988218070426   -0.90421308129800
C           9.99740572596914   -4.87092811968808    0.51683876868053
C         -12.88915936319214   -3.58468503763003    0.18239892573841
S         -13.31606104215094   -5.24036646735900    0.47671555572712
C         -15.01230620327422   -4.88868290769485    0.22918130817630
C         -15.20908415166080   -3.54481728281200   -0.06874296278827
C         -14.00609960404735   -2.82848456000331   -0.08919534935744
C         -16.55574861948981   -2.95411417560316   -0.33500034296987
C         -16.53038664315228   -1.46954210072116   -0.67561456815726
C         -15.95362065893895   -5.93965914537686    0.35498264780863
C         -15.65091793548384   -7.26613998271706    0.64858634321783
C         -16.76698891844335   -8.07349539522624    0.71818597547538
C         -17.96653991116721   -7.40130841792395    0.48275037192957
S         -17.66376204552508   -5.71377375681776    0.16478693425200
C         -19.22165073540200   -8.03010600023184    0.50916395202277
C         -20.46738774598736   -7.51093735149397    0.30445806427985
C         -20.83846868897754   -6.14675766002859   -0.00321850792380
N         -22.21151660877281   -6.03519250604988   -0.13943140651579
C         -22.95139074468457   -7.15938468805493    0.03372141419049
S         -21.90214313556780   -8.52022277334465    0.39583844471636
S         -24.57634335599501   -7.25508555546242   -0.08563194407508
C         -22.81897830410578   -4.75045972661251   -0.42633101436027
C         -23.29859682865853   -4.06949741128105    0.84921067073777
O         -20.09057132856256   -5.19369669357275   -0.14254704198034
C          12.72106601476399    3.30338731818960   -1.58187341892538
S          13.14675119453122    4.98474052277709   -1.55944109216734
C          14.82542142355900    4.60322682683197   -1.86755792547039
C          15.01900947554718    3.23144553265186   -1.97829846989491
C          13.82559775655945    2.51720200032310   -1.81507243213979
C          16.35350179248581    2.61044498772785   -2.24394579736439
C          16.32650403511682    1.09022821912123   -2.33743781652266
C          15.75111838441700    5.67211030931278   -1.96754489825992
C          15.45481123233564    7.02346889769722   -1.85130767393727
C          16.55373866104154    7.85611762362201   -1.99190293757969
C          17.73839637262172    7.17359105517654   -2.22191836451008
S          17.44742960963359    5.45152668945356   -2.25955484419866
C          19.05142416668610    7.64416960577658   -2.41502449872341
C          19.49590289326171    8.92824901582676   -2.42085087287971
C          20.90541398105609    9.24561772084135   -2.63277257174952
N          21.10115425596514   10.61828932236492   -2.58356827317333
C          20.01247884153466   11.39409938624582   -2.36735606697361
S          18.57274192786825   10.39403101111014   -2.19086357623490
O          21.80020960140079    8.45025261986661   -2.81797054914974
C          22.42138769195908   11.18013905541019   -2.79162223831918
C          22.61423431639997   11.61596505013500   -4.23850281245145
S          20.00350782728050   13.02220826806463   -2.26605789540994
H          -2.39467373440703   -2.77933643515386    0.38276354702865
H           2.30039591651675    2.59031680620154   -0.26271126800690
H          -2.18080880006506    3.05113152935640    1.20301073895263
H          -2.24837408373543    5.54026668324740    0.49566746833702
H           2.21082912603849   -3.09898241049832    1.36031146627270
H           2.19567389049001   -5.65881412103880    0.97038243146969
H          -1.16313778099135    7.16003843696711   -1.23073996011784
H          -0.30853959584230    6.38127524542900   -2.57221896513050
H           0.95169507623005    7.13969472765965    0.10778668696831
H           1.17346113158420    8.00340650314275   -1.41798002706542
H           1.79257487051325    6.35873200954981   -1.23442893400172
H           0.89598702454312   -7.47481952948368   -0.34971653640678
H           0.02371776663231   -6.85704319722301   -1.76108633067060
H          -1.17619681504869   -7.19264441274699    1.03032491574716
H          -1.47110083616088   -8.25228076298712   -0.35287991413895
H          -2.03101375098493   -6.57656606040200   -0.38839483244814
H         -10.46061282022990   -4.96108789203400    0.60568215641272
H          -5.85772051443689    0.48058260636387   -0.05863662149136
H         -10.45295031393065    0.96822861491221    0.97777491878327
H         -10.53544690906615    3.34697824580025   -0.04222728260199
H          -9.12704403434449   -5.43372618233067    2.44951156105844
H          -8.16059180809563   -7.83195830072381    2.63680142503468
H          -9.37858001490398    4.77056437730166   -1.89045798599460
H          -8.39102991821734    3.86301619862160   -3.04675851734375
H          -7.37770627178124    5.01901487253102   -0.40427131384526
H          -7.06967875425960    5.69165640353576   -2.00914043054288
H          -6.40463299745717    4.11519671990691   -1.56821117595668
H          -5.63818748118007   -8.72399772880967   -0.00847940051728
H          -6.38626533318705   -9.36912666787085    1.46211853428136
H          -3.97606959356050   -7.48478823176682    1.38034379263664
H          -3.90199269132102   -9.22350596004347    1.68628557037313
H          -4.70046186192025   -8.15404558368524    2.84465256147764
H           5.74283983315572   -0.72051756904744   -0.59367073948723
H          10.35103960357650    4.73427062628818   -1.09424081251975
H           6.03126768900852    4.99132539912587    0.81619092433534
H           5.87783281130741    7.53748266244329    0.37703166113213
H           6.89278901247216   -1.43999925702758   -2.48838377798701
H           7.83794764915656   -3.85350900895154   -2.42456484149735
H           6.77698646665938    9.34170593355318   -1.26023501581534
H           7.46242280419246    8.71669755356363   -2.76858968237534
H           9.04072957216064    9.21468949670630   -0.19790419541497
H           9.07111458797715   10.23399459030887   -1.64091686987582
H           9.71066332869943    8.58822726420822   -1.70707731809305
H          11.30729772161384   -4.13576902568910   -1.02402567668037
H           9.97322340000187   -5.13372014709025   -1.62548366283778
H          10.27610707938009   -4.11068082395968    1.24298248431516
H          10.58652562148474   -5.76509619399369    0.70440994871250
H           8.94550518199365   -5.11095443630059    0.65426087545308
H         -13.93030056665464   -1.77697108081637   -0.29746617095837
H         -17.19029096001359   -3.11371249925648    0.54268992064364
H         -17.02525518949253   -3.50516953590117   -1.15604917919626
H         -16.11507532797302   -0.88894821813740    0.14476906238611
H         -17.54442578149429   -1.12332034891714   -0.85874902218594
H         -15.94041419777975   -1.28681897262833   -1.57079868623006
H         -14.64285540210919   -7.60948847224929    0.80228309948723
H         -16.73568749345894   -9.12704541161547    0.93399542306016
H         -19.18275574991769   -9.09158181676539    0.72787484947130
H         -23.65672988360641   -4.91720809089531   -1.10745753435703
H         -22.04964710392120   -4.14797800317275   -0.91519188127277
H         -24.05520875049793   -4.67735030342881    1.33953664224160
H         -23.73187263638459   -3.10419894170804    0.60462670145944
H         -22.46550626567088   -3.91774746280593    1.53172594742164
H          13.74829791353695    1.44658597699617   -1.86368673141299
H          17.04437191808299    2.91087252675981   -1.44919537216389
H          16.75147474722960    3.02180522562047   -3.17754962528026
H          15.97513318579814    0.65093191720157   -1.40698360921157
H          17.33011092536630    0.71992844399306   -2.53167338132664
H          15.67971553518270    0.76367499753103   -3.14819593037408
H          14.45428115150265    7.37345249069505   -1.66831224986687
H          16.49884009545783    8.92750261729787   -1.93003617665897
H          19.82057841853884    6.89829441565553   -2.58080718853421
H          23.13408785361160   10.39387476992297   -2.53153750804544
H          22.53755996083085   12.03208974933497   -2.11742956967777
H          22.48547792928573   10.76820055487709   -4.90746889033986
H          23.61615336036940   12.01461874498942   -4.36693494724805
H          21.89495915598366   12.38869472935656   -4.49946659472792
