245
 SCF done       -421.768498819724          0.000518560848
C           1.27752035179840    5.50241944973004   -4.74391017286838
C           0.30882696331165    4.55723041048804   -5.12113917153943
C           0.39570830263752    3.24298028998041   -4.58114267298408
C           1.35528894985934    2.82591446011641   -3.67267919252881
C           2.30606277972575    3.78465187681312   -3.28908916992264
C           2.24300598116548    5.08387244625094   -3.83343145729106
C          -0.83769745389206    4.68057083453682   -5.96946809986771
C          -1.55780188852537    3.54576241130750   -6.06594353290530
S          -0.91314122431968    2.23390035534997   -5.14573314771297
C           3.41592939941683    3.63855655386375   -2.42202850501549
C           4.15731521963895    4.77710812745850   -2.28360907393265
S           3.52283548406183    6.10491059967309   -3.24142753075238
O           1.39456052466404    6.79999925441651   -5.12477309627192
C           1.37739931194438    1.46760221587569   -3.11337015093952
C           5.31538467722909    4.93220827313376   -1.47113161918764
C           6.07948371360846    6.06677993963414   -1.28150545361016
C           7.13656285818917    5.85325138119564   -0.40943041177764
C           7.21034438402226    4.55710805524631    0.08522736740586
S           5.91952833206752    3.58340168572147   -0.56272852604670
C           8.20205820018635    4.10902138639793    0.99205366864467
S           9.37400984605197    5.28792091636960    1.53234731116469
C          10.21874180940424    4.12733652475555    2.52976057862808
C           9.60306345838563    2.88298436502286    2.44185963439882
C           8.46280682969074    2.87397841151333    1.57629528974784
C          10.05528422851974    1.70095988278020    3.15096521962003
C           9.23433728063400    0.51102813010351    2.95143724853214
C           8.10074754819194    0.49945295728518    2.07871354989467
C           7.66385463085563    1.68458314538729    1.34850752781626
C           9.45384317475455   -0.70064307415767    3.55887970718707
S           8.28512242587731   -1.86624351577749    3.04040587947155
C           7.48894528363564   -0.72793510686258    2.00926106361504
C          11.34959305265468    4.59584790099370    3.24169521191034
C          11.77281984501674    5.91869956801044    3.25156110965510
C          12.92598061270728    6.13956798067521    3.98974505722042
S          12.42446497700258    3.60607116368185    4.18889587340688
O          11.05908794866555    1.68418544369723    3.86187860341906
O           6.68017652434766    1.66561586620528    0.61127429291672
C          10.52873963299733   -1.09378153682829    4.50721505803722
C          11.81718790120622   -1.44409623705463    3.75735039738166
C           6.28760328361677   -1.13424619634348    1.23477083879069
C           5.00199897266721   -0.71128798028711    1.95090544738923
C          13.42108341494564    4.98025351926863    4.55362948840988
C           1.34780443372687    0.34613984706956   -3.96991784065062
C           1.37724858342725   -0.91973887488116   -3.46169246372792
C           1.43343702021013   -1.14270012437910   -2.06975414362327
C           1.45889249159363   -0.02033467523945   -1.20089313749999
C           1.43053029850761    1.27381267459869   -1.75341838871791
C           0.80561375189953    7.28685919962260   -6.31399886828266
C           1.56565062408591    8.54291925283717   -6.71521092395239
C           1.46467000522219   -2.43771659775717   -1.51364164348665
C           1.51263348853103   -2.61507450944024   -0.15905562830979
C           1.53316990710597   -1.50518783916203    0.70083927402615
C           1.50958489385203   -0.23664476787803    0.19253123262208
C          17.13287120732207    2.77099826383412    7.10363886031220
C          16.30247552649733    3.75713101351887    6.53688504523760
C          16.68758062144970    5.12602119365891    6.66116862264257
C          17.83826262841140    5.56504711749900    7.29175337685350
C          18.66713974816368    4.56999025899269    7.83927222819785
C          18.29592614431461    3.21429274273013    7.72465165517032
C          15.10488022563429    3.63439551515580    5.78632313339964
C          14.59216543337466    4.81951182773224    5.34358083134188
S          15.56360101831116    6.18599722155491    5.84605743426353
C          19.88178947393311    4.71591459477018    8.54960395410422
C          20.44165035311055    3.52838238059700    8.92946971091777
S          19.46549137233021    2.15004985685083    8.45265936361552
O          16.97815376251627    1.42557876689152    7.11634544931695
C          18.20422510579836    6.98530965520406    7.37838150578249
C          21.68262297578786    3.35903384201928    9.60365154733705
C          22.32388055084555    2.17589285741804    9.91486682764955
C          23.54701274654204    2.38373397772575   10.53374395586892
C          23.86621828987808    3.72278259673751   10.72113640164767
S          22.59488849474563    4.74498052078389   10.11159980069618
C          25.07563859379771    4.17348093974639   11.30493156801122
S          26.26430872106494    2.95572519870964   11.70185087889237
C          27.39325835579154    4.13234170991042   12.33126016433597
C          26.85294294738980    5.41040801896836   12.24046825702730
C          25.55119176400120    5.43508324544778   11.64569100088676
C          27.52439681004481    6.61021507570703   12.70394408538056
C          26.80751630475259    7.85457114310350   12.44264424742999
C          25.50935036674847    7.88028653016304   11.84068890794679
C          24.82122475339855    6.66697028056574   11.41179231900637
C          27.28355407630560    9.10750921505691   12.74012234472873
S          26.12867687808859   10.32080857905589   12.30675899389876
C          25.00090216954814    9.14958243703848   11.71503606897482
C          28.63781378431547    3.64083193265881   12.79456336671422
C          29.04764474036521    2.32041554624731   12.66460078912228
C          30.30312634282290    2.06307020042408   13.19360701786854
S          29.85793788238960    4.58147093096779   13.60686999282000
O          28.60504402178916    6.59231181697077   13.29107092731885
O          23.71739302742087    6.70224948955523   10.87173425483538
C          28.56879130625351    9.49552916684316   13.37774662014564
C          28.47797243024042    9.38551202286748   14.90245265900272
C          23.70527712390182    9.58822646654996   11.13407212684881
C          23.78399431472132    9.66181186254836    9.60654159620487
C          30.87692785816516    3.18390329493435   13.76078961346220
C          17.27400614161729    7.92800006209514    7.86681637943760
C          17.60863680374082    9.24638634667956    7.97373137504650
C          18.89034586348523    9.70335528891152    7.60117739248434
C          19.83001222965016    8.76303753338449    7.10318219417501
C          19.45557483769403    7.41026987998989    6.99976239803523
C          15.76563112201270    0.79372133149379    6.75615401905272
C          15.85758205664965   -0.65221368141995    7.22087396339877
C          19.27011542213912   11.05667454409110    7.70871777588743
C          20.52244230859007   11.46192986159720    7.33958820226225
C          21.45212825026939   10.53205455873980    6.84680700805163
C          21.11459462865086    9.21281610536225    6.73114628741307
C          34.70860164875072    5.01416670890411   16.44484553923596
C          33.91451182058253    4.16228072969488   15.65150553100322
C          34.42380989474976    2.87066610178684   15.31663942132375
C          35.66188450518857    2.39102460705640   15.70134955434355
C          36.45648011408540    3.26450973090823   16.46281340325172
C          35.95929125397940    4.53373690604684   16.82117188549003
C          32.62155738940670    4.35251924842201   15.09666600752653
C          32.13990721126276    3.27748262173193   14.40726659284673
S          33.27468669295713    1.94444608677175   14.38524156417497
C          37.76855463527462    3.06409962485942   16.94725522846289
C          38.25181489520858    4.11381939600288   17.67663383442878
S          37.09963252131222    5.43258152453033   17.78521484627030
O          34.44008846674588    6.26115326344545   16.89978079293390
C          36.15636044133565    1.05143025857639   15.35438495813498
C          39.52747968886919    4.15739952495825   18.30427550066234
C          40.06690573027554    5.13805421394093   19.11241269034317
C          41.33461077679711    4.80699989872533   19.56986004531779
C          41.79706276274850    3.57735258582012   19.11843942704754
S          40.61436924372677    2.82190723878265   18.08992594122941
C          43.04542574570612    3.01124219747275   19.47772691158741
S          44.01843029687642    3.89770281920577   20.62504168806209
C          45.29105342669985    2.70019658431958   20.61198055758040
C          44.96610196373712    1.66647193821383   19.74432335126840
C          43.69729962909862    1.84147616742863   19.10275096779996
C          45.81961302628274    0.51613318037000   19.49043027592908
C          45.29572309927534   -0.43325442638839   18.51134562235643
C          44.03267277667820   -0.25048424070053   17.86436221117062
C          43.16251534535259    0.88332988517042   18.15385965140391
C          45.93900384236301   -1.57826341315708   18.11104374358600
S          45.00878670986225   -2.41937247022204   16.91847126404009
C          43.74225324989821   -1.24163076052473   16.95915971711720
C          46.41122658021584    2.95558508449066   21.44907965285499
C          46.53437410653232    4.07968084779700   22.24735729716814
C          47.71915806593542    4.11672944607824   22.98460805060444
S          47.80759225715427    1.92865283266113   21.62823762592553
O          46.90479306084448    0.35267222206566   20.04070270406382
O          42.05650205057303    0.99952651267887   17.62961097358564
C          47.26916944634731   -2.09902524116184   18.52001275814366
C          48.38584475389533   -1.41727939059643   17.72378765647700
C          42.54357073894945   -1.40310021492173   16.09466242097995
C          41.37206655626792   -2.01594891038334   16.86705183935876
C          48.49848395487721    3.02117253060696   22.74889470445618
C          36.66703485073395    0.21671563687226   16.37365710252286
C          37.18451700772271   -1.00995943681820   16.07812523255777
C          37.22002246598376   -1.47993087764602   14.74818402566648
C          36.68785162778472   -0.65746712168905   13.72085017215047
C          36.16225530498848    0.60551807019792   14.05537486674149
C          33.16422096340656    6.85953510708035   16.79186688349463
C          33.19339427609923    8.12725334263259   17.63278295903493
C          37.76098276722725   -2.73605993237944   14.40719151512480
C          37.77432585594416   -3.16113922812500   13.10802602028000
C          37.24545128133938   -2.34965204623668   12.09189316536461
C          36.71444389949171   -1.12638364585523   12.39051894159922
H          -1.13138115738394    5.58097623177274   -6.47430260180668
H          -2.45403408641998    3.38677595570387   -6.63301287394677
H           3.67058578603344    2.71999345250680   -1.92435518751039
H           5.86774816498111    7.00620666160034   -1.76117249151260
H           7.84634892308991    6.61356770688399   -0.13195856688438
H          11.24053589543660    6.69348834327030    2.72706216309668
H          13.39674020181015    7.09968295978019    4.10916566889816
H          10.19870776664845   -1.95353108203162    5.09378021333391
H          10.73262795669529   -0.25566031457257    5.17644075655772
H          11.63860457867511   -2.24305127682127    3.04085321882552
H          12.57824885128493   -1.76898349101402    4.46168417259850
H          12.18423939273201   -0.56827701292472    3.22937389292283
H           6.29215777106007   -2.21726103916269    1.09694626149988
H           6.31458759669112   -0.64615408976537    0.25862177087592
H           4.95612019358582   -1.14709690104768    2.94694880779459
H           4.13890364859258   -1.04136542760198    1.37911617405419
H           4.96676510597257    0.37145549000536    2.03399314913359
H           1.32173104609078    0.50431271267341   -5.03785483521441
H           1.36138066677325   -1.77382172345701   -4.12383824279148
H           1.43021079747636    2.12383587213237   -1.08583146661161
H          -0.24973965377224    7.53451225004461   -6.13515844898576
H           0.87280966511938    6.53264901639585   -7.10761464050075
H           1.51923009635388    9.27264449428730   -5.91177045552887
H           1.12748008812056    8.96916653533161   -7.61320076261732
H           2.60860045161933    8.30311646105745   -6.90338394221632
H           1.44745338635093   -3.28900702269190   -2.17951445288813
H           1.53390682140226   -3.61025885231713    0.26094615090149
H           1.56505356513820   -1.66419251410200    1.76930422421092
H           1.53108457545203    0.62057790517863    0.85029052600093
H          14.61448011922606    2.71285307792738    5.53802221151499
H          20.33243966676128    5.66437202629117    8.78078259360231
H          21.91335507900754    1.20744508897806    9.68915593685922
H          24.20171346575931    1.58917776486283   10.84808739616664
H          28.43599921657039    1.57565780324374   12.18520379524481
H          30.78356115893657    1.10046297508477   13.17851572744689
H          28.81846313556129   10.52071478151518   13.09705535077176
H          29.35372800693040    8.82276690228569   13.02687113867445
H          27.66715955187144   10.00254135971669   15.28394206674716
H          29.41067554527359    9.71517407733199   15.35215285106809
H          28.30200761793743    8.35142640083857   15.18582141528396
H          23.43965293779913   10.56805956525557   11.53587925710987
H          22.93365260400367    8.86527568609797   11.40536460894065
H          24.57269910659043   10.34389177166812    9.29542306612614
H          22.83637047917082   10.01077337242880    9.20496715502687
H          23.98633878214286    8.67452079066160    9.20059091602259
H          16.29692181530080    7.58701289031470    8.17512791333976
H          16.89320294018498    9.96147701575692    8.35449642896262
H          20.16819942072887    6.70410508426734    6.59776297910217
H          15.63278384942612    0.82585556277592    5.66675288901230
H          14.91848197121399    1.29340589281505    7.24166948928624
H          16.70737888388201   -1.13860308762997    6.75020582692087
H          14.94746535063814   -1.18163896158658    6.95412252693713
H          15.99187603190205   -0.68961867444149    8.29845952204876
H          18.55142895527273   11.76877293835352    8.08928700711195
H          20.80724310986652   12.50067586069093    7.42449491095268
H          22.43721939741373   10.86993556976127    6.55897289350625
H          21.82824110898610    8.49284589689454    6.35682276976451
H          32.03065590207792    5.24456197802508   15.17775426491849
H          38.34849747771857    2.17855250068941   16.75855908796596
H          39.55058522449809    6.04923160783916   19.35859420753790
H          41.92022368704217    5.43622707295877   20.21796420108129
H          45.78006237349037    4.84626310105038   22.28745810666965
H          47.98088100281382    4.91516067901398   23.65596778238864
H          47.30483158909433   -3.17748507190851   18.35356861098058
H          47.42008893887571   -1.89043228684991   19.58067987228889
H          48.24044887161448   -1.56455564015025   16.65548409636186
H          49.34834545615421   -1.83363823444022   18.00751951007065
H          48.39325650608371   -0.35198401796780   17.93777148033723
H          42.79437841467919   -2.03972565207012   15.24375862460878
H          42.23731342286884   -0.42007732457223   15.73108239041578
H          41.64677468478649   -2.98570411791851   17.27710465157741
H          40.52309600369122   -2.14023087782293   16.20002963958029
H          41.08054079114174   -1.35432457590507   17.67803737741924
H          49.45480480465776    2.79974018984398   23.18106886670171
H          36.62766968668739    0.56070460833065   17.39680421133494
H          37.57685525182814   -1.64059159217900   16.86355943225141
H          35.78496457425751    1.23625622052307   13.26329273379965
H          32.39188231583010    6.17627673046612   17.16641833661017
H          32.95223882400244    7.11163047074371   15.74456941488942
H          33.40691629147747    7.88102770940543   18.66927965378575
H          32.23213252290205    8.62946035142143   17.57397514369864
H          33.97047393615134    8.79403321770317   17.26972389860369
H          38.16364101840970   -3.35897968266599   15.19405103095426
H          38.19067726218312   -4.12498150675421   12.85329950740901
H          37.26277754006399   -2.70231179649807   11.07085827992379
H          36.30591457973726   -0.49788497381546   11.61203505866510
