122
 SCF done       -208.226564466240          0.000886080180
C           0.87129508560753    0.83785630847312   -0.11546124818763
C           1.16592978086441   -0.43630108387250    0.42887520175623
C           0.24357980242988   -1.47577760875294    0.48344730909326
C          -1.06094947332018   -1.17501688342110    0.03362749531412
C          -1.34990068766988    0.09302985790634   -0.52707241448651
C          -0.40869708111907    1.11223127864721   -0.64530548557184
C          -2.20224767450010   -2.01026688397221    0.06715106116654
C          -3.31578930038995   -1.44499072688802   -0.48587961515943
S          -3.00511765482837    0.17809114169514   -1.06862439346708
C           1.98212324813460    1.70784598195866   -0.03734905650989
C           3.09898056738881    1.13607121784297    0.50142676420995
S           2.82410437239025   -0.52962532575471    0.96406547093724
C          -0.72452677607053    2.36384629359142   -1.29457263547338
C           0.58870925354336   -2.80476874094469    0.93146465068307
C          -4.61236759362555   -2.01128394795700   -0.61350743913820
C           4.36501124793304    1.75122555514215    0.68911093175782
C           5.51022869550815    1.22718487551801    1.25171912786398
C           6.57970107823096    2.11604295984915    1.26349305386860
C           6.28581754520718    3.34957299163598    0.70446180814829
S           4.62507485689592    3.38398384198673    0.16359792978529
S          -4.95841234400251   -3.59454431992602    0.00575744393493
C          -6.61593480482731   -3.50235208267595   -0.54098678842382
C          -6.84386874979782   -2.28980347701449   -1.17160516360562
C          -5.72898386666260   -1.46045750260440   -1.20816890561689
C          -1.90513191650402    3.05825275661487   -1.29529089401527
C          -1.87856341213888    4.23167382654060   -2.06502980431393
C          -0.67341106167410    4.43896731915204   -2.67689185724145
S           0.45074898300407    3.17246091460195   -2.30458945933164
C           0.17907247361524   -4.00536741928971    0.41382898879134
C           0.72828367987883   -5.12169049976871    1.06249873130002
C           1.56445248230460   -4.77854038256308    2.08901414788086
S           1.68368968439507   -3.05592213859232    2.26673200807211
S          -0.26890653225709    5.78862592272750   -3.70349099198467
C           1.52723095660361    5.50948044012084   -3.94822539970616
S           2.40996865623624   -5.90039052141237    3.11935537150701
C           3.46557725508800   -4.75785252190648    4.08850377446360
C           7.20255975015816    4.42613822196724    0.59567003317706
C           8.51582414144226    4.42701287145243    1.06149600961445
C           9.10003913991162    5.69448093912173    0.77838985798293
C           8.10647388229510    6.49420448968997    0.11310967972849
N           6.97217684229684    5.66338029319947    0.03617351327257
C           9.50771866312834    3.62880083724757    1.72978374688231
N          10.64111710612398    4.46216906569900    1.81024150497676
C          10.41053217598308    5.69660748518047    1.24979170872057
C          11.32978650778324    6.77736696790696    1.14110086153990
C          11.03565315429223    8.00170225858674    0.57486096157464
C          12.11779821875951    8.89148087056409    0.58163276017429
C          13.23656904119662    8.35905649530742    1.14817925025639
S          12.99078988322424    6.75374632395053    1.68566485431941
C           5.78634857127996    6.14973939390141   -0.62427112790246
C           5.69990729647157    5.67595779094583   -2.07296603749076
O           8.11564123256001    7.63306347449568   -0.31879885025869
O           9.49784013171972    2.48995117132703    2.16225504506693
C          11.81692549063882    3.98923402581160    2.49816260064885
C          11.86975224518174    4.48693539725089    3.94020171834207
C          -7.59031156046515   -4.52161709559045   -0.38547754537051
C          -8.88537301942270   -4.49276039750465   -0.89936106755482
C          -9.53810922115666   -5.71198690564387   -0.55975593272898
C          -8.60910609213934   -6.50854968781803    0.19700478675892
N          -7.43984877071903   -5.72669597585397    0.26285879351035
C          -9.81147094530354   -3.69999305913278   -1.66207979128859
N         -10.97317263921120   -4.49261596481824   -1.74807109297243
C         -10.82467389753924   -5.69245792326710   -1.09269280248590
C         -11.78152267011105   -6.74069222361509   -0.99028924422883
C         -11.57340082713551   -7.92841200378490   -0.31800834529755
C         -12.66988802550002   -8.79868303461842   -0.37461339721176
C         -13.71459207129687   -8.28752375741466   -1.08415452767254
S         -13.37887707111991   -6.72745442855511   -1.70054582701000
C          -6.31630199015204   -6.19701066785361    1.03454224733753
C          -6.28238058933957   -5.57335803136693    2.42735756600279
O          -8.69112256902384   -7.61145465333048    0.70701756818617
O          -9.73091625217417   -2.59619305563792   -2.17102310388070
C         -12.14198709290204   -3.96085728932222   -2.40428622357629
C         -13.12923558357510   -3.35961416457773   -1.40742986870957
C           2.11811281159550    6.65204103502614   -4.74897459483587
C           4.38876791160291   -5.55554734934794    4.98696217914372
H          -2.21506598886018   -2.98912928176339    0.51129907440435
H           1.96956204611149    2.73682926034818   -0.34646022400623
H           5.55293002035070    0.22437331693661    1.63812028225293
H           7.55069415686600    1.88411374930334    1.66385110058906
H          -7.79945045792848   -2.03144650622512   -1.59211643836488
H          -5.71820270587215   -0.48207297568996   -1.65473796506147
H          -2.76172646916081    2.76106568192795   -0.71843651112508
H          -2.70753977185554    4.90717855397688   -2.16591876509618
H          -0.45852952151924   -4.08360631337500   -0.44832140204832
H           0.53090479721067   -6.14099677017018    0.78666009243834
H           1.64325095901269    4.55768195793607   -4.46858074512057
H           1.98126970385459    5.44031752963819   -2.95846340797984
H           2.80305623475823   -4.11405571938626    4.66811612311681
H           4.02746993183241   -4.15391482371757    3.37524542053134
H          10.06693947852638    8.23501800144306    0.17065256825618
H          12.07166067097628    9.88924361024708    0.18427481736119
H          14.19890758534816    8.81241367942325    1.28188138488880
H           5.86827046493374    7.24112103305406   -0.60763459687730
H           4.89821701226348    5.85365624480404   -0.06140248885102
H           6.57241575711873    6.01843642152695   -2.62401859945142
H           4.80882910747641    6.08720794801400   -2.53889860889331
H           5.65393780761044    4.59121303234810   -2.12928812039466
H          12.71457052895624    4.28082322562784    1.94853127621482
H          11.73996636852696    2.89753345771274    2.49589248739378
H          11.89236502755130    5.57322951556449    3.97856728233198
H          12.76085748457197    4.10303656506555    4.42813361370822
H          10.99486384663945    4.13653936494227    4.48259423205541
H         -10.65388369963526   -8.15112675496764    0.19292743749248
H         -12.68721699080683   -9.76686259389824    0.09208989709547
H         -14.66774545133706   -8.73457504819084   -1.28715053915662
H          -5.38566731267411   -6.00443487235228    0.49576813947624
H          -6.45444101943680   -7.27880218480120    1.12539360853192
H          -6.19699541923290   -4.49096283487413    2.36927409024058
H          -5.43221869129417   -5.95995551983837    2.98185266836775
H          -7.19398518611233   -5.82315178835287    2.96491431967090
H         -12.61686083273732   -4.73682328794800   -3.00860327639495
H         -11.77382921518743   -3.17212875788172   -3.06770409962697
H         -13.47260368186840   -4.10779249281243   -0.69719918702044
H         -13.98978275491860   -2.96245165105671   -1.93783532431763
H         -12.65160995976464   -2.55090872511819   -0.85943935561232
H           1.63512099345730    6.72476319886063   -5.72091390339868
H           3.18281303837084    6.48341503474994   -4.89955335157609
H           1.98223338377815    7.59537100760290   -4.22416971164877
H           3.81378972862172   -6.17237237654408    5.67358387916204
H           5.01397986688723   -4.87833747589107    5.56431713320458
H           5.02968504341775   -6.20413579266380    4.39442810826725
