164
 SCF done       -272.158496493822          0.000569649276
C           1.15685734731204    0.03358417688794    0.09493971815867
C           0.89741977545352    1.42533899968394    0.13572697260083
C          -0.42823154859509    1.90394710301810    0.06464802828681
C          -1.42337121111375    0.93726733756505   -0.04877037375629
C          -1.16690034633204   -0.45373824909040   -0.09885138486761
C           0.16219094166922   -0.92941564530363   -0.05269652631133
S          -3.13517492256390    1.26402409408835   -0.05751133904654
C          -3.49730276899526   -0.45025179006746   -0.09325723219453
C          -2.36443989887523   -1.21058096215037   -0.11573562234465
S           2.86662053912596   -0.29001557208944    0.19262554670116
C           3.22355135871398    1.42126928906570    0.25528432871671
C           2.08934324188489    2.18183287599076    0.20885738340807
C           0.45719878694330   -2.33809333999971   -0.17158492650405
C          -0.76407254541609    3.30738899958024    0.14056501094492
C          -0.14819937272455   -3.25845331302823   -0.99464893559672
C           0.38529857984895   -4.54527018813180   -0.88916331550833
C           1.41243926452595   -4.64081217985912    0.02449192046112
S           1.72119722815531   -3.08984975277492    0.75467405050329
C          -1.77124907115422    3.96699027140254   -0.52240583306834
C          -1.88693675314442    5.31673112912568   -0.17947450175735
C          -0.97612743027481    5.72372788620290    0.76997167603641
S           0.05268846093791    4.39425487131984    1.22630658247387
C           4.56396835174111    1.89145400454392    0.35769291518767
C          -4.85416174509168   -0.87385729766120   -0.10585580025469
S           5.88623661547033    0.81969255449746    0.68707549787034
C           7.01976702360116    2.14785899264890    0.68138761461753
C           6.38210265420821    3.35345119483632    0.41820788964756
C           5.00216903703380    3.19194402607143    0.24505963702944
C          -5.97240559392793   -0.08518179378123    0.02645368414979
C          -7.18490291345763   -0.78368966300305   -0.03658329961572
C          -6.99254475551823   -2.14441460882078   -0.23181583531410
S          -5.29171294164414   -2.54020769441229   -0.32024285028742
C           8.38454684762706    1.87357310564716    0.95818661263882
C          -7.93863192670218   -3.19129439785503   -0.38561277687944
C           8.92964831558878    0.64614949728997    1.28858634425752
C          10.29431935156985    0.68967275086727    1.54449399244922
C          10.85025462047956    1.94979739905176    1.41414152335436
S           9.62051142569683    3.09715888944156    0.95596672030090
S          -9.65419400587052   -2.94981093294091   -0.23721790201595
C          -9.98693683716383   -4.62408501392015   -0.58682832753994
C          -8.80284083785827   -5.30708953078639   -0.79777048558243
C          -7.66735204084237   -4.51545995311839   -0.67866180459518
C          12.20830031699678    2.28890113971773    1.64818709246017
S          13.25501075180497    1.05014124470634    2.28353804104307
C          14.60084139081013    2.15284627459242    2.33029851945998
C          14.21304607019838    3.40192150661784    1.85537079034624
C          12.88107055121147    3.49975081786641    1.47620570063143
C          15.89688760681199    1.87503900982578    2.79592460519036
C          16.41058113110446    0.72562446844084    3.32162940885303
S          18.07099057116164    0.64307219155244    3.88761604639187
C          17.87299605238675   -1.02480059643181    4.39871484332629
N          16.61357391493977   -1.44925467046837    4.12577876708983
C          15.75178964036247   -0.54711188068510    3.52554224233971
S          19.04171800449747   -1.91427803561621    5.11116164435680
O          14.60350928004208   -0.83500113095465    3.23593901293610
C          16.17808710550568   -2.80180471286132    4.41347052599983
C          16.60951557151637   -3.76542898817931    3.31533289123846
C           7.10069065955466    4.66459819152875    0.33990493963798
C           6.19955473648544    5.85516393763394    0.03755511131572
C          -0.77790150418793    6.99439290490688    1.38075062854767
C          -1.53242829994126    8.08954970255966    1.13958922764071
C           2.20315128446409   -5.75904712094264    0.41384582595364
C           2.05229826497769   -7.01354842186584   -0.06651992259802
C          -8.53584026344989   -0.15023544604201    0.08206405951468
C          -8.50139981659284    1.36221999592371    0.26127659740408
C         -11.29382727214721   -5.17188788146364   -0.67075856505763
C         -12.52702590301053   -4.62509689977934   -0.31497802760633
C         -13.56800570965956   -5.51143607798011   -0.56002631648506
C         -13.18564673775952   -6.73371547024749   -1.10287195789761
S         -11.45785299339226   -6.78481280526883   -1.30738316210402
C         -14.09907916797671   -7.75046280488454   -1.42931561686322
C         -13.88181349133177   -8.97810978008319   -1.98286757569571
S         -15.21060255335678  -10.07764816035550   -2.31421804243696
C         -14.12160033265546  -11.28283531087675   -2.98023472833552
N         -12.84183586513623  -10.83513604293604   -2.92536968344196
C         -12.62785572797348   -9.57650830328675   -2.39012964103051
O         -11.51501790726130   -9.08923097468622   -2.29309521283838
C         -11.73151379571466  -11.61332847615115   -3.43859424678181
C         -11.57601071243712  -11.42491364021362   -4.94238072989917
S         -14.59752156576912  -12.72977988258843   -3.56702432479233
C          12.30005326792154    4.75770130276442    0.91086435559391
C          12.23615846301353    4.69772073941362   -0.61632778236508
C         -12.76045727293769   -3.25541393593779    0.24058022591750
C         -12.93676972319243   -2.23015810943091   -0.88110431684139
C           2.84783477190538   -8.12986892334908    0.31378979215384
S           2.52064025276204   -9.68662196795996   -0.41322872292110
C           3.80325711327696  -10.42665150863188    0.48929329191633
C           4.43451009509496   -9.51747850934096    1.29828351411459
C           3.89704039482272   -8.22934814576561    1.19834413051694
S           4.21419255563227  -12.11519588236199    0.36778745356010
C           3.01039070311264  -12.68199781219687   -0.89219696349585
C           3.20307593206935  -14.16229536581058   -1.15292848052070
C          -1.33844704270989    9.35907654947041    1.75124322662983
S          -2.41753806715053   10.67057547999333    1.33445921438227
C          -1.58628914762951   11.75261182462902    2.40488794632885
C          -0.54269138640950   11.12730316471961    3.03660672986005
C          -0.40532616030015    9.78416803301596    2.66862383750082
S          -2.03963474560308   13.41982595175852    2.62739129803711
C          -3.48419951714704   13.54347769129672    1.50690403368337
C          -4.04004848290296   14.95264021564889    1.54483723922716
H          -2.39706486798708   -2.28473779067617   -0.10273060980346
H           2.11097717256747    3.25451904110321    0.22866038963624
H          -0.92438320272378   -2.99601281419146   -1.69162693480459
H           0.03282807981953   -5.37723679106922   -1.47120867595705
H          -2.38630327605645    3.49504842509939   -1.26742214040334
H          -2.61643800699336    5.97336638701278   -0.61709037038401
H           4.32982982416762    4.00157425343053    0.03460793350476
H          -5.89214738296724    0.97701068328401    0.16749124322452
H           8.33519762350129   -0.24856234768986    1.34393938092419
H          10.88225367784492   -0.16733515806129    1.82114403223362
H          -8.78314932566271   -6.35691733058492   -1.03032449820366
H          -6.66339368850491   -4.87934815880659   -0.80771517164409
H          14.90276507237664    4.22671290688237    1.79978698147253
H          16.58003399331983    2.71521301022848    2.73776875820457
H          15.08845139714272   -2.76586277840728    4.48443708917859
H          16.60879062540340   -3.09916541362935    5.37256665533213
H          16.18879200127862   -3.46105225609015    2.35965802472112
H          16.25778133570672   -4.76544574115546    3.55111974004932
H          17.69394592648345   -3.78632884034987    3.23752920615294
H           7.87469274552060    4.59490853536343   -0.43138264009359
H           7.61729185311896    4.83779087073171    1.28971811003784
H           5.70252511590067    5.73097626177555   -0.92159781855771
H           6.79653182970714    6.76320636970318   -0.00367072009889
H           5.44671889526355    5.97783626591926    0.81251760516361
H           0.03784154063651    7.05329416362321    2.08736263808597
H          -2.35169381883818    8.02760736975087    0.43695605530240
H           2.97156675902890   -5.55642588236321    1.14616470459167
H           1.28029069064366   -7.21565463926443   -0.79594120901106
H          -9.06158177392117   -0.60102744763554    0.93020433447894
H          -9.11718509730876   -0.39285363059804   -0.81354321616679
H          -7.97471334266551    1.63283775983316    1.17326665521865
H          -9.51729299484724    1.74440942308050    0.32820184946410
H          -8.01221153775286    1.84070356558771   -0.58375529649759
H         -14.59824465875699   -5.28133454221198   -0.34854722838894
H         -15.13259384628307   -7.50709681413124   -1.20897581550862
H         -11.91775989104930  -12.66361353748712   -3.20301927538379
H         -10.83944262928135  -11.26158951642592   -2.91499356181308
H         -12.47496194543402  -11.75367985566031   -5.45853476660107
H         -10.73541543486295  -12.01377759465011   -5.29738130789746
H         -11.39419433127520  -10.37789066762055   -5.17380409844017
H          12.92904030376206    5.59812133461739    1.21022224824862
H          11.29945200606057    4.92555778130826    1.31278275267396
H          13.23397673122073    4.57041904174062   -1.02981505711773
H          11.81031301871258    5.61675384229032   -1.01059278419033
H          11.62033973515567    3.86355954028884   -0.94211309733192
H         -11.92716729915377   -2.95887255297547    0.87943339876597
H         -13.66517086381028   -3.27580034810049    0.85153712024521
H         -12.04885438830741   -2.19103264832090   -1.50670480284077
H         -13.10874956343505   -1.24190718074781   -0.46286260108536
H         -13.78602133762064   -2.49746676524446   -1.50555708763600
H           5.25695545619200   -9.78530198209456    1.93603746983953
H           4.27106183729964   -7.39348213752612    1.76057343333412
H           3.18273526265445  -12.09236558850150   -1.79327512781943
H           2.01269914954573  -12.47171350746941   -0.50525015595068
H           4.20923522189066  -14.35783007465424   -1.51623121071893
H           2.48931864235905  -14.49910108121775   -1.90129674994895
H           3.04878011647923  -14.73339259814447   -0.24046681781091
H           0.09349850990335   11.63310915503810    3.73965963364532
H           0.35976772232540    9.14328819070854    3.06697977957123
H          -4.22096074035976   12.81431703407711    1.84604382289089
H          -3.14216097885516   13.27641758559161    0.50632173284406
H          -4.35607655612924   15.21111438527284    2.55275086213147
H          -4.89728185233680   15.02662358643493    0.87966782859633
H          -3.28655082890077   15.66871301123727    1.22526601069958
