136
 SCF done       -249.338024987347          0.000954608946
C           0.86517246063812    0.72816813714983    0.21032748383440
C           1.11228541636801   -0.61422622944494   -0.16949517509070
C           0.10508453094154   -1.54719833520419   -0.38598852976599
C          -1.21328983181459   -1.10665253238273   -0.15301926826450
C          -1.46022080731444    0.22997238458395    0.24647869913356
C          -0.45641654726911    1.17950688462993    0.40595133469824
C          -2.40847305857452   -1.85761956680975   -0.24374001939879
C          -3.53317339401134   -1.14474680098547    0.05412919915741
S          -3.16675254620412    0.51720918960408    0.46686511860630
C           2.06676131741014    1.45884998066743    0.36769653036076
C           3.19242137866911    0.73545934081769    0.09969602227732
S           2.81913915863767   -0.91346894806759   -0.36212354049821
C          -0.76438894740402    2.55698046420373    0.72979499068325
C           0.40815458251173   -2.89069256222411   -0.83620699565807
C          -4.87011918413506   -1.63137424967706    0.08518934126089
C           4.54302672566897    1.17189427861603    0.18340762506261
C           5.68801912894857    0.43101848750850   -0.02682060876936
C           6.85714124070132    1.16325758980568    0.15557110390203
C           6.62951781224964    2.48079339050009    0.50379568972521
S           4.92269054223079    2.80940328908142    0.60440754834698
S          -5.23889122724869   -3.22974310799949   -0.48566673304240
C          -6.91390582867542   -3.03576118519504   -0.05664066288118
C          -7.14614673284569   -1.78620133887381    0.47996049113420
C          -6.00020030335573   -0.99494438608049    0.55046071447094
C          -1.71927755842314    3.03523412307455    1.58355016197882
C          -1.77550801139364    4.44180893163240    1.62673020659061
C          -0.88370474974104    5.04782970638519    0.79581692239704
S           0.06497184756536    3.87531291058080   -0.05369390892981
C           1.43955930281498   -3.69838065723443   -0.44708801692641
C           1.46261039784622   -4.93814609607804   -1.11597606951865
C           0.46538189043113   -5.07983799550707   -2.03046677901866
S          -0.54262581486559   -3.67106984565747   -2.07043337850675
C          -0.62978368193356    6.50228884886124    0.60021569071286
C           0.70125398673593    6.92177355128626    1.22822647936367
C           0.15328448440346   -6.25088324157882   -2.89707335344034
C          -1.12411327119505   -6.95674009144185   -2.43749177282651
C          -7.82253672008463   -4.11992120530606   -0.27695954940855
C           7.62079080496397    3.47683262176539    0.76229148545471
C           9.00902974096046    3.18679534532500    0.73666780349697
C           9.99048424736587    4.18482204031650    0.99884008712886
C           9.67432513811849    5.53203601150977    1.29555231687108
C           8.30819137119535    5.78526342304436    1.31414364844845
C           7.33802647004523    4.80552259388678    1.06274180974606
C          -9.11246917096712   -4.20907510722904    0.23005504961593
C          -9.95409569744318   -5.30888731415318    0.01130013189753
C          -9.60906636044749   -6.42175007248248   -0.74645800245986
C          -8.30238316886500   -6.35366176482784   -1.29211004413347
C          -7.44328283836873   -5.24327979207747   -1.04985449392396
N           9.66893364035518    2.04294769467700    0.50206609115851
N          10.92737201958217    2.35817006728867    0.62268108940336
N          11.19039349278502    3.60095617300144    0.91257307654416
N          -7.62373583946337   -7.21178440315116   -2.06689353300642
N          -6.46735599614041   -6.63856229262341   -2.25621958755464
N          -6.29079418184113   -5.48181449367159   -1.68659410546490
C          10.71059666967276    6.48980620844814    1.54192996684926
F           7.84825994897634    7.02013009798025    1.58273856617587
F           6.05398231611013    5.21054842715005    1.12058798757931
C          11.97400414108174    1.39902800628834    0.41341991081828
C          12.65860110863222    1.64550127457864   -0.92687276167539
F         -11.16695535706234   -5.25839229582385    0.59607082105399
F          -9.61031881771092   -3.21996602056852    0.99607822753179
C          -5.42680009599151   -7.27167680791619   -3.01448965016263
C          -4.67444357274871   -8.27526082728760   -2.14610503831973
C         -10.46506296854319   -7.55097355875159   -0.95531875083077
C          10.60790691229577    7.83703859863438    1.84891146994621
C          11.83685761481647    8.46026301670897    2.02319212776384
C          12.91397550437097    7.60491012978795    1.85352047478185
S          12.36662737700717    5.99289991643005    1.46839007790933
S         -12.02521967740920   -7.68593277288019   -0.21034616565032
C         -12.28686854003015   -9.24127238560143   -0.93322608599706
C         -11.20431759090853   -9.60615802542463   -1.71563841809044
C         -10.18249636335269   -8.66448337156853   -1.72529047108445
C          14.30401341037306    7.84209495579482    1.94666349738812
C          14.94634302092313    9.00713182990464    2.23766813709159
C          14.31718946072502   10.23333666300273    2.50997821377843
C          16.43030108063611    8.99260482920207    2.27983156965673
O          16.92177979203800   10.19955466335119    2.56782302017865
O          17.09804216452969    8.00884739983206    2.06914741535929
C          18.34040620786060   10.31882181910524    2.66298503003302
C          18.84102919125664    9.89477935277115    4.03649551208187
C         -13.45931170938073  -10.02198615572024   -0.74462940622949
C         -14.52908101177876   -9.72219285955629    0.02646660751650
C         -14.66242548451196   -8.46826567273681    0.84703293081808
C         -15.63418384088505  -10.58563415876407    0.10267631946455
O         -13.87176746777009   -8.53383499459010    1.91607197731436
O         -15.38954483268849   -7.55548948540007    0.56725990868588
C         -13.87494404479405   -7.40607044941062    2.79800850214235
C         -15.04828151194721   -7.46175822514124    3.76370047318870
N          13.82183593557414   11.24586989839093    2.73081989468172
N         -16.53001581673497  -11.29916501173384    0.18320714469312
H          -2.44926299679298   -2.90075575612450   -0.49842950390174
H           2.11253341392988    2.48397024311166    0.68695475061503
H           5.65989287036807   -0.60888327404021   -0.30038399259498
H           7.84948918976982    0.76815007912691    0.04453987470401
H          -8.11408893931326   -1.45232007553088    0.80429166250105
H          -5.98296592643782    0.00828390844933    0.93808044592190
H          -2.33703069092872    2.40102181615923    2.19324912487712
H          -2.45976113461749    4.98644814819250    2.25295513959867
H           2.14014947648998   -3.43004341277719    0.32268665330116
H           2.19926156115331   -5.69839809326149   -0.92497513262082
H          -1.44703889684602    7.06538866992314    1.05582238414765
H          -0.60884900388193    6.73233120390451   -0.46810951375374
H           0.69946338101823    6.71101842483924    2.29528036959115
H           0.86665156134950    7.98633684590507    1.08431979232460
H           1.52419920279937    6.37754631233203    0.77030221864357
H           0.99354979780476   -6.94736896067822   -2.86226260758709
H           0.02574210792935   -5.91990996982805   -3.93103018124594
H          -1.01141149149482   -7.31497717585449   -1.41666935113686
H          -1.33755222298434   -7.80512372291353   -3.08302296872789
H          -1.96524673047552   -6.26784047992547   -2.47167038220803
H          11.51347648474358    0.41050791382272    0.44501868062619
H          12.69506114626637    1.50384164930207    1.22730862861603
H          11.94785525689428    1.53675113539873   -1.74249659756554
H          13.46322114058250    0.92967417704118   -1.06617169041501
H          13.07246071710095    2.65030216690746   -0.95062640835053
H          -4.75815698938952   -6.48305406581765   -3.36326652440991
H          -5.89138075558366   -7.77642982071628   -3.86421749161417
H          -4.20933527301191   -7.76989373102749   -1.30354262543149
H          -3.90081705540467   -8.76221198349023   -2.73184531731612
H          -5.35922749061504   -9.03147170148460   -1.77053742801247
H           9.66979710497629    8.35105068019571    1.94385214783326
H          11.94722602798553    9.50119387911062    2.26549855164757
H         -11.16865289007739  -10.53516517885711   -2.25676885776473
H          -9.25964065063540   -8.76388289969541   -2.26529436964994
H          14.95097912979788    6.99067231574947    1.76574005364481
H          18.54608722481478   11.37472646059516    2.47644260093139
H          18.80156849215182    9.70268270805804    1.88350056989659
H          18.34102788201609   10.47119015802907    4.81141235416839
H          19.91203898376437   10.06359084949913    4.10167903427810
H          18.64057325109738    8.83772046548157    4.19573510721038
H         -13.48132249101363  -10.95307541628778   -1.30023816839350
H         -13.91150361810784   -6.49128014607275    2.19810162364990
H         -12.92127364681212   -7.46450564255254    3.32594445040524
H         -15.98544344976977   -7.39303917500622    3.21670381446004
H         -14.98519768314978   -6.62968951567952    4.45884237821664
H         -15.03300019127057   -8.39486786535968    4.32224785034836
