124
 SCF done       -231.799071329063          0.000531667919
C           0.77836411606395    0.71348373796296    0.50121036955111
C           0.98562566342617   -0.68332240885845    0.53155820854869
C          -0.05791998856971   -1.58993109517506    0.56553942052386
C          -1.35605479930822   -1.05751886324294    0.60362267701732
C          -1.57442207284115    0.34806801382400    0.55535592208128
C          -0.52576338186293    1.25513517907482    0.48922451193640
C          -2.56266331982917   -1.78880064706439    0.72956716062264
C          -3.68137424804595   -1.01128763255463    0.77487882595794
S          -3.29617144703963    0.69024385740593    0.64282604841590
C           1.99652010621099    1.43139755853118    0.48994850336997
C           3.10190386981882    0.62930889700295    0.51807499758002
S           2.67972431494322   -1.07697836061920    0.54199312161341
O          -0.56970383000812    2.60322052283079    0.42363330951319
O           0.18217674272040   -2.94122822669266    0.62518598416986
C          -5.03154025875399   -1.42861148996852    0.94171892506820
C           4.46574485015245    1.03050949463134    0.55118037857183
C           5.58593176047441    0.22564939933950    0.60280783000279
C           6.77691542434689    0.94314747756716    0.65756787053688
C           6.59292473699057    2.31262107815173    0.64728291034630
S           4.89903054957015    2.70859587114548    0.56132889833006
S          -5.44351078529275   -3.11336749307978    1.04370380038057
C          -7.12270557774857   -2.72484720914716    1.28738993338017
C          -7.32258049725746   -1.35988893242633    1.26835841018516
C          -6.14963527076750   -0.63351314462520    1.07026400447730
C          -8.06532191240647   -3.78211900784660    1.49261678641914
C           7.61219190692797    3.31102744482707    0.71867410415762
C           8.98658494782172    2.98344592306730    0.84643339855590
C           9.99264551827365    3.98645408297980    0.94873338676568
C           9.71646873488336    5.37440445807566    0.92981797825970
C           8.36469082221606    5.66393871658444    0.78842654673726
C           7.37072894028592    4.68111348730862    0.68990360935138
C          -9.39611293055397   -3.62105386321030    1.85682446998406
C         -10.27067445961823   -4.69323328401984    2.08170862998168
C          -9.91795325802320   -6.03245027188556    1.96324444383008
C          -8.56749992738206   -6.23077487452904    1.58039693398767
C          -7.68155433052773   -5.13767385839657    1.35767331758919
N           9.61081863164022    1.79777109894306    0.90275759231571
N          10.87339492612053    2.09581761059207    1.02444704659957
N          11.17091017889385    3.36399696802506    1.05976528780651
N          -7.86616815006445   -7.35276855064683    1.36130427817181
N          -6.67420312928455   -6.93650118134087    1.03536984816302
N          -6.49381082622245   -5.64727593550778    1.01349387621730
C          10.77094749437062    6.33416710991510    1.06634909158841
F           7.94223433763471    6.94015766455980    0.74879016012833
F           6.10462748359567    5.12606930525404    0.56616248504278
C          11.88332571525969    1.08505524821534    1.15627805712173
C          12.35133331440691    0.99127281445211    2.60489161870844
F         -11.52640802852758   -4.37001189586012    2.44864546756542
F          -9.91011271093321   -2.38885529655185    2.03117970133396
C          -5.60642844822433   -7.84984362929182    0.74306041691933
C          -4.54947101591677   -7.79735497400247    1.84062994275088
C         -10.81127426630377   -7.12352823588847    2.21301001042461
C          10.70589491744540    7.71814869158563    1.05314913258225
C          11.93787060843486    8.33208466892111    1.23752455024381
C          12.98024988444525    7.43290090409485    1.39757666349908
S          12.39633918444898    5.79010534580137    1.30603000865766
S         -12.46002817594379   -6.88074009268227    2.69270712835803
C         -12.73262535612422   -8.59112715834316    2.78744708319576
C         -11.58492124168041   -9.28984395719914    2.45424369312384
C         -10.50913930448101   -8.47057919431073    2.13275709579448
C          14.35869401117858    7.65110224403364    1.61952609579246
C          15.01743604131735    8.83669596121202    1.74442740957324
C          14.42213012008572   10.10681696631892    1.66737256305247
C          16.48077736689369    8.80039476996141    1.99137340766526
O          16.98974540493514   10.03144124753688    2.07746918243641
O          17.12057814327617    7.78123485165531    2.09153964658143
C          18.38732817888654   10.14284015628481    2.34159840876207
C          18.67761516594908   10.04602601598226    3.83252784653944
C         -13.97326305888138   -9.17587976499921    3.16116239548052
C         -15.11608550501015   -8.52551832230504    3.47493917132007
C         -15.27145075234105   -7.02779829323695    3.45054676163782
C         -16.28246841528576   -9.22379797984850    3.82584289938151
O         -14.76211799420064   -6.49224116696557    4.55561922557922
O         -15.79155999839489   -6.42558559929230    2.55200065116786
C         -14.82254889256125   -5.06618790793038    4.67522670421989
C         -16.18420310695873   -4.60936519791188    5.17439697459678
N          13.95325839925250   11.15372078069865    1.60934503932335
N         -17.23849729183991   -9.78297389864831    4.12858798645261
C          -1.80150958896274    3.29701494697345    0.35467690153295
C          -1.47653139020668    4.77443450602009    0.20083616953006
C          -0.07777536876808   -3.66049575947483   -0.57255385974311
C           0.89676622341550   -3.30949674271213   -1.69033184061785
H          -2.59824119113194   -2.85950318145703    0.82428061371735
H           2.04357960820407    2.50509442255146    0.47225747820510
H           5.52399675480321   -0.84811248771844    0.60513795746689
H           7.75473855356366    0.50192579870302    0.70735201900503
H          -8.28506494657509   -0.90010647209245    1.39187449577556
H          -6.10607357688294    0.44059360833062    1.02908364940779
H          12.71955200318848    1.35797541884706    0.50874439074726
H          11.44172420583356    0.14441211708144    0.82398439983845
H          12.75026166416185    1.94976871743103    2.92687601847733
H          13.12919003743067    0.23862070824420    2.69250417000816
H          11.52358140441679    0.71693190996059    3.25435370000941
H          -5.16553973518944   -7.56341609222081   -0.21508646650169
H          -6.05045734827671   -8.84329557036451    0.66591055769009
H          -4.16274319258372   -6.78560486572471    1.93086609752197
H          -3.73132800900397   -8.46857462874903    1.59714596756166
H          -4.97617784822604   -8.09749882454188    2.79449381973902
H           9.79218785878999    8.26507079378571    0.91461525144475
H          12.07452530467747    9.39758019523585    1.25669971247958
H         -11.54254840771570  -10.36466230165747    2.44857170115878
H          -9.53380868348234   -8.81944501493379    1.84950846552611
H          14.97888105303451    6.76597034541516    1.70877391522778
H          18.67054038772046   11.12073781099490    1.94747705082976
H          18.91571622055888    9.35167425734573    1.79904345459924
H          18.10798794543115   10.79757988788338    4.37387007601260
H          19.73733185981339   10.20656855903708    4.00851407319712
H          18.40432030118474    9.06044203612132    4.20185998463019
H         -13.98234064579945  -10.25988153645002    3.18240382815546
H         -14.59992155967584   -4.62283168828751    3.69963972771612
H         -14.03266389387445   -4.81417303361558    5.38495659647876
H         -16.95254578537715   -4.86278645111664    4.44808402682928
H         -16.17554109650208   -3.53250453072720    5.31552254501119
H         -16.42005534322892   -5.09105238106917    6.12049699623896
H          -2.38252799122798    3.12994137512872    1.27003292531614
H          -2.38639062478626    2.94567521219403   -0.50433853757123
H          -0.89194389624298    5.11624271606068    1.05027817553410
H          -2.39626930165431    5.34861511822084    0.14493264129248
H          -0.89820660244049    4.93546559555912   -0.70469901048027
H          -1.10796789094906   -3.48424649739882   -0.90922587577916
H           0.02934737500329   -4.70931784953725   -0.28641433947521
H           0.77114685277313   -2.27134800355716   -1.99128516410309
H           0.71284640591043   -3.94792744070001   -2.55001430034800
H           1.91988735046644   -3.45112143160230   -1.35184839272652
