136
 SCF done       -257.665867687694          0.000641164628
C           1.43214026575537    1.27799434909118   -1.83519934075444
C           1.90039637244847   -0.02947339447482   -2.12024872872612
C           1.07980077301452   -1.15323715357314   -2.14969623975793
C          -0.27112905984905   -0.95072382140706   -1.80116193034949
C          -0.73756310776622    0.35428102221151   -1.50890748544348
C           0.07050732578159    1.48752791357114   -1.53909850819505
C          -1.26848668629468   -1.93077855615464   -1.57593381125533
C          -2.44807855297894   -1.41881966983268   -1.11620479946544
S          -2.40273413449624    0.32639185871615   -0.99929923313091
C           2.47332919731613    2.23660126461392   -1.89809399288716
C           3.69703543856119    1.70228608170558   -2.17937817643772
S           3.61232898910714   -0.02549447087920   -2.43612581107250
C          -0.48545405132524    2.79082838352519   -1.23703298127869
C           1.60207957718690   -2.45090336622295   -2.52375413939204
C          -3.59335543288248   -2.13287444071903   -0.65792121952931
C           4.96213357295676    2.35875368498028   -2.21292033535738
C           5.23185648171670    3.70822738705141   -2.14279178971586
C           6.59824396085201    3.99295724887882   -2.14063308792056
C           7.38931222077736    2.86668430978395   -2.19970875938608
S           6.42455994794358    1.42688114327471   -2.26858801415971
S          -4.80079499656617   -1.32954827105593    0.29314097537584
C          -5.63484048214862   -2.82929451909293    0.57056691366395
C          -5.01280772493894   -3.87074789696922   -0.08888780468381
C          -3.86577758195805   -3.48045651849659   -0.77766464086569
C          -1.71969235101754    3.26452734958716   -1.58515891498663
C          -1.95694226432871    4.55493185856648   -1.07510543773058
C          -0.94767102923311    5.08486221948627   -0.32798255997693
S           0.36226351915016    3.95759175042063   -0.25696390622555
C           2.83430998186958   -2.97781556115620   -2.25539214292797
C           3.01354186114861   -4.23895796463186   -2.85446737541161
C           1.96083329451168   -4.69522682925922   -3.59026557142298
S           0.68063385032421   -3.53303532297554   -3.53603351335019
C          -0.87559112046377    6.42322822802407    0.32153324336479
C           0.18884450045714    7.30612216152121   -0.33152934323537
C           1.83048751093131   -5.98503583148856   -4.32360675592769
C           0.74667591079923   -6.87240857103466   -3.71041475670740
C          -6.74277725695509   -2.84231235592979    1.47578063737725
C           8.82349539511785    2.77058402597278   -2.18233390830513
C           9.43575741081803    1.44307296604867   -2.16808741149568
C          10.80559467047363    1.17355403236970   -2.50310687713474
C          11.52970238321351    2.36123757820781   -2.89543159947942
C          11.08540066938829    3.40130865894587   -2.02791398159433
C           9.69634598126595    3.81569780828783   -2.29479230752312
C          -7.38555894010859   -3.97392301549724    1.96429288010394
C          -8.36627153676323   -3.94275587331671    2.96791206419265
C          -8.81156162767870   -2.77658630508263    3.58111151533910
C          -8.22653055876114   -1.60382761181292    3.04747420442360
C          -7.22749391022898   -1.63773327221995    2.03741476795069
N           8.83381841251840    0.27262339391751   -2.05444799405411
N           9.76422167069851   -0.62048943969695   -2.30298155500100
N          10.94639669659764   -0.14083719809501   -2.59757919847859
N          -8.42777075383647   -0.31847036690543    3.36352081351583
N          -7.60772576698585    0.33924404581899    2.59243503395147
N          -6.87007893326628   -0.37220448552792    1.78915933704090
C          12.16943989042373    2.52379083925249   -4.12307917201102
F          11.14025569627738    2.96180163927914   -0.70407381942924
F           9.34564054955379    5.08322438987685   -2.53524808125178
C           9.48398547618257   -2.02726598188641   -2.25680749031839
C           8.38637739940180   -2.38518357372931   -3.25174796156533
F          -8.85600159997711   -5.13654137805923    3.34906997572318
F          -7.04734493915556   -5.19356057383996    1.50369200376414
C          -7.55762990469446    1.77281395721141    2.58678415344007
C          -8.53802996683514    2.33214793394267    1.56019368469714
C          -9.71535840644729   -2.70459290398267    4.69082491946067
C          12.44144852213929    1.54464634231653   -5.08248064532825
C          13.06746048184486    2.04251481751018   -6.20662347002724
C          13.31302728558203    3.41344865781905   -6.14728183784984
S          12.74105720359842    4.08079043386552   -4.64051200218713
S         -10.14031065427308   -1.15942661654017    5.34229769802974
C         -11.06906198565250   -1.90425737208723    6.62590826042681
C         -11.04940586119703   -3.28241780764261    6.50100506615013
C         -10.29742472330420   -3.72764847526731    5.42053395729638
C          13.91890625838209    4.27506625452616   -7.08584723238106
C          14.40640944130359    3.96613216990034   -8.32117897752713
C          14.39052227269392    2.68911348498364   -8.90419735102142
C          14.99891353609077    5.06392363958182   -9.13036180791245
O          15.40195182249926    4.62439000032194  -10.32288190305331
O          15.08405244677142    6.20505642504489   -8.74779201326130
C          16.00294281625115    5.57822588970148  -11.19885160994855
C          17.47426765021196    5.78490721882503  -10.86995913916927
C         -11.66433087618449   -1.02957273357035    7.56733401123288
C         -12.24015785083572   -1.25993693715906    8.78187333851337
C         -12.42630107646167   -2.54508348095430    9.49610170302138
C         -12.68455253601551   -0.12808798500101    9.50214861567737
O         -12.56046617456819   -2.31322948012954   10.80662037612600
O         -12.47512606094866   -3.64480300657223    9.00066081773709
C         -12.73558557071805   -3.44510553500643   11.65647201926372
C         -11.39804106799140   -4.07279859659400   12.02298079089164
N          14.38519441633357    1.65192467183378   -9.39824437154041
N         -13.05205378233047    0.80356777695514   10.06152365603765
F          -3.10697378102402    5.21466078184508   -1.30695619676026
F           4.15538336526789   -4.93875290810406   -2.71314002358532
H          -1.10152241317399   -2.98493041443066   -1.69099034790118
H           2.32901469702477    3.28519627371660   -1.72233867381947
H           4.46702673411176    4.46183370341213   -2.09812936687240
H           6.99525593530461    4.98983811708420   -2.08595895260724
H          -5.37003262243705   -4.88341461815809   -0.06451862414036
H          -3.25040567493740   -4.15795684103942   -1.34101203070837
H          -2.42255948113929    2.74375653580631   -2.20776458975837
H           3.57622504378851   -2.51929942147855   -1.62957512409825
H          -0.64158931814486    6.30358550287552    1.38271498609227
H          -1.85535963791001    6.89794322644152    0.23632697110133
H           1.16907030453217    6.84275444323328   -0.24263202868665
H           0.21791843589148    8.27799352519891    0.15375703478826
H          -0.03304855386796    7.45119972712563   -1.38636508711162
H           2.79457055350682   -6.49672168104212   -4.28834699992593
H           1.58404081232675   -5.78812338810291   -5.37042873088531
H           0.97808899341330   -7.09057916107296   -2.67033136878538
H           0.67868026353530   -7.81039091356639   -4.25482472743570
H          -0.21855230179441   -6.37268728927400   -3.75474353627057
H           9.16189709186975   -2.28029198136538   -1.24235661257965
H          10.41901693487997   -2.54215485014752   -2.48202969324312
H           7.49461091744485   -1.80009147777448   -3.04165734388432
H           8.14289961147407   -3.44004036360857   -3.16839834439221
H           8.70939925177685   -2.17987860504309   -4.26938011938317
H          -6.53593858924747    2.06334075521336    2.33561533549725
H          -7.81636556429679    2.11415408919525    3.59048210586095
H          -8.28199763614702    1.97634007737285    0.56534468509785
H          -8.49535694507229    3.41717333251333    1.56529802565565
H          -9.55155468639269    2.01951663048603    1.79901524282256
H          12.18100381970998    0.51324505807804   -4.92782201473752
H          13.35134979080070    1.44208578899928   -7.05129574765591
H         -11.57419051747910   -3.93380910429055    7.17442421646042
H         -10.17328976820848   -4.76739990978911    5.18170132469769
H          14.00966376503641    5.31743648232662   -6.80074083059301
H          15.45897363512330    6.52535665799614  -11.11847892945168
H          15.87659049474109    5.15728398743753  -12.19806253081228
H          17.57699660228966    6.21983664241240   -9.87862133912927
H          17.91764553464359    6.45878296180594  -11.59723237021054
H          18.00127316380869    4.83413024409373  -10.89677062845607
H         -11.59999546225241    0.01723918579969    7.28413889161438
H         -13.37272713213375   -4.17685126628963   11.14851811289447
H         -13.24385113455422   -3.05603815840498   12.54069960571400
H         -10.90940926472197   -4.45782815142748   11.13097798825189
H         -11.55825931957515   -4.89250296269657   12.71721766108094
H         -10.75188605741022   -3.33246301013297   12.48864812058403
