136
 SCF done       -257.436272833525          0.000537668933
C           1.19601009076841    0.22319419086235    0.23096129974053
C           1.47128445201775   -1.16162570938013    0.34644979914956
C           0.49222421720038   -2.14613534957804    0.26349201881191
C          -0.83029731449861   -1.70126587793019    0.06365040686654
C          -1.10770350604360   -0.31483219068501   -0.04024846538686
C          -0.13031641398195    0.66858576752181    0.05545123536210
C          -2.00813924041186   -2.48045248723758   -0.01641339105259
C          -3.14612269147587   -1.74492526541416   -0.19128860358801
S          -2.81256459167640   -0.02815796591026   -0.25217534749184
C           2.37959524719421    0.99794901591513    0.25224453925073
C           3.51922031882518    0.26092014697049    0.39896283634776
S           3.18109459924211   -1.45328330725722    0.52090962257287
C          -0.43759782631494    2.08245678885680   -0.01546969941342
C           0.84225857814646   -3.54936950932174    0.35278495667327
C          -4.47755561722338   -2.23153553257980   -0.32930132735449
C           4.85511689806007    0.74478423298918    0.46464235392264
C           6.01959126473054    0.01526446620418    0.57025401556853
C           7.16395662582755    0.80947306429456    0.61350317111980
C           6.89345267129896    2.16131843963147    0.54461952194534
S           5.18232433369836    2.45052875126531    0.42161824897469
S          -5.82136315580526   -1.15234218531823   -0.52585015188308
C          -6.92983566638594   -2.48797554091088   -0.62779267989812
C          -6.26485354435180   -3.69231007216087   -0.50859312918828
C          -4.89025460426867   -3.54902792309814   -0.34118712866168
C           0.09956145826404    3.09783902733693    0.72422027148818
C          -0.43232670848894    4.35901755628069    0.38111941211227
C          -1.36451306454760    4.32820884031014   -0.61450568894190
S          -1.61044416513653    2.69916862832836   -1.14459515367031
C           1.77232755067360   -4.12831939265573    1.16882694392367
C           1.90106463905694   -5.51648654186866    0.95115686428957
C           1.09995162309086   -6.01114005290295   -0.03680252102854
S           0.13656900927864   -4.74069142852951   -0.70560534993439
C          -2.15655680690939    5.44712685244883   -1.19509665423116
C          -3.60968639253082    5.39627471645596   -0.71816553688017
C           0.94928954117751   -7.41831907904537   -0.49830290418100
C          -0.21816404943712   -8.10833292320895    0.21180193614516
C          -8.32474697684538   -2.23573083488440   -0.82092853591552
C           7.78972070040355    3.27610867472658    0.56933706360394
C           7.29878451474965    4.60156018594276    0.50157857400964
C           8.13340118868607    5.75466426497813    0.54039047410553
C           9.54405470718352    5.64927381617416    0.63847411879803
C          10.00186113247827    4.33709851977122    0.69516911676848
C           9.17388969320961    3.20656008064924    0.66549987290861
C          -9.31287682693566   -3.20208671984205   -0.95940492981602
C         -10.66589706680734   -2.89820356259686   -1.16267033205807
C         -11.17802841025243   -1.60873749557401   -1.24781712792328
C         -10.19471620943838   -0.59737996699337   -1.10547330465760
C          -8.82095756106972   -0.91280654807804   -0.89912956725810
N           6.03422189323667    5.02400118439456    0.39954653409552
N           6.12402535692238    6.32239123500001    0.38504308680088
N           7.32530717707354    6.82292266994704    0.46416076588783
N         -10.28800818698550    0.74077395159149   -1.12984946150332
N          -9.06574608603266    1.15863678284316   -0.94988886882603
N          -8.15315917954688    0.24175626063116   -0.80574757010018
C          10.39913002411553    6.79741072545213    0.67009088280987
F          11.32431932288337    4.10429661528955    0.78811127799813
F           9.79248800333467    2.01353042972578    0.73620404467071
C           4.95927179992259    7.15649256026876    0.27848467566031
C           3.92709419133206    6.76486672078404    1.32713350231853
F         -11.50029619688781   -3.94851414029057   -1.28160930400383
F          -9.00038747408803   -4.51035514453249   -0.90717215078576
C          -8.73642146266830    2.55592784422369   -0.92183933609142
C          -7.72659819714506    2.88440267080545   -2.01480856415282
C         -12.56234681423640   -1.31139675815649   -1.46443638308926
C           9.99378647000537    8.12267221911037    0.63533912844312
C          11.04745099862852    9.02477467112206    0.67454008073114
C          12.29024627117505    8.41246331865085    0.73893535440861
S          12.12306805653168    6.67937133788139    0.75446806336329
S         -13.75890067334794   -2.54445698136560   -1.68460810655144
C         -15.01827544733271   -1.36045836810947   -1.86065150405893
C         -14.50568264520372   -0.08052622786947   -1.75716707833403
C         -13.13251409175158   -0.05333247648523   -1.53734247563035
C          13.59103791261643    8.96401875043910    0.78562408659574
C          13.95127114161314   10.27708063888548    0.78244357332316
C          13.05889120202638   11.36093435494774    0.73909966682381
C          15.39985385492014   10.60305815903057    0.82717140090897
O          15.60337245449126   11.92179605733384    0.79697011180863
O          16.27326939519009    9.77135798467811    0.87139923843033
C          16.95713598127001   12.37109534176183    0.84372484494371
C          17.48633498016103   12.39902738108089    2.27045724664823
C         -16.34529515540057   -1.81803166026442   -2.09445854959352
C         -17.47148828565105   -1.07070943131958   -2.08982138023245
C         -17.53669883223119    0.39757264791834   -1.77282838634469
C         -18.72600300636391   -1.64139441146567   -2.36299309323231
O         -17.49835183671389    0.57378717341257   -0.45341107926779
O         -17.63033178992544    1.27281949678645   -2.58992660601397
C         -17.62427091731911    1.91360562514343    0.03257299791432
C         -19.08590221074736    2.31800847751620    0.14973612168081
N          12.34308499274065   12.25880837288241    0.70681430891508
N         -19.76050473829891   -2.09318500961185   -2.57190252315246
Cl          0.07285378138510    5.80982731400853    1.16093250486751
Cl          2.99030285152771   -6.49440685878417    1.85700639847170
H          -2.01641903141972   -3.55037799152380    0.06361962538737
H           2.40287723278665    2.06478592908120    0.12782025243563
H           6.02969110351271   -1.05952861448833    0.61286731544915
H           8.15641429207671    0.40733239972049    0.69342812533944
H          -6.75580566283793   -4.64667095491547   -0.54215182533936
H          -4.21633343288282   -4.37926163523908   -0.23670298380889
H           0.81143447599019    2.95648588267816    1.51612557939359
H           2.32379217711477   -3.60091386784343    1.92456959886606
H          -2.13384710236904    5.38295079068038   -2.28538805308239
H          -1.70090363882582    6.39246155921244   -0.89463296569742
H          -4.06851914328925    4.45512906574017   -1.01316994954479
H          -4.17584331162745    6.21535098920169   -1.15399409820222
H          -3.65456640503617    5.47925286735380    0.36520772052367
H           1.87501159540261   -7.95671970520926   -0.28612662317450
H           0.77697224090759   -7.43264570254757   -1.57634128273763
H          -0.05559762471664   -8.11385611878355    1.28687254319891
H          -0.31049786333338   -9.13517299783194   -0.13166230920506
H          -1.14928516238803   -7.58610048093773    0.00344305109599
H           4.53630911664724    7.03356770279120   -0.72348939777580
H           5.29673018429933    8.18652966473922    0.40371953858491
H           3.66933578670635    5.71533610544911    1.21352316327450
H           3.02987594998745    7.36403256673596    1.20414796693126
H           4.31921485667986    6.92324861019876    2.32865369519462
H          -8.31213631736172    2.79049416239739    0.05877513328446
H          -9.67057947767068    3.10306308223547   -1.05767516153211
H          -6.83634718189455    2.27416000432711   -1.88586601218799
H          -7.45012796516943    3.93303321792364   -1.95769377772826
H          -8.14952319688257    2.68692775954417   -2.99677547470564
H           8.95638067342708    8.39565705274740    0.58201194297754
H          10.92278593671323   10.09164880250565    0.65619372073526
H         -15.09978418740764    0.80715177164597   -1.86972385737265
H         -12.54708079132379    0.84123662614242   -1.43369259089746
H          14.41392310358892    8.25855165580495    0.82629929554357
H          16.93339760752777   13.37333650133481    0.41145485431074
H          17.57204312606345   11.70939898993046    0.22419228202691
H          16.84402655426405   13.01394927418073    2.89649046882276
H          18.49123806116667   12.81121370064566    2.27716011479175
H          17.51683899583139   11.39043642279504    2.67589525942123
H         -16.44512444321484   -2.87800816060982   -2.29702424717896
H         -17.09576528382578    2.58992670785855   -0.64796648153505
H         -17.13359353271319    1.90585263270115    1.00795363467505
H         -19.55145440842479    2.32228677854229   -0.83307510351781
H         -19.15519846576071    3.31447973200318    0.57632566555889
H         -19.61877096999127    1.61790315064205    0.78863302572690
