182
 SCF done       -294.393849080206          0.000291605400
C          -0.74026998743447    2.31555418451049    5.86577228579347
C          -1.02056447947876    1.96215223206080    7.19003835231430
C          -0.00221058536674    2.02856735911881    8.17205968790563
C           1.29545738173030    2.42725908777764    7.90703469105841
C           1.57372236426650    2.79183103660937    6.58422892771742
C           0.55214278667893    2.72998440583028    5.60325539520983
C          -2.25689346874879    1.51610363505173    7.74847770743802
C          -2.17909577075998    1.26294767651733    9.06968290461361
S          -0.60816577129993    1.54397292132679    9.73836996402654
C           2.80136404076116    3.24885362621535    6.03730841745781
C           2.73987156324541    3.53423887463751    4.70605000479409
S           1.14196739122662    3.24569766558525    4.04174949015725
C           3.77724049286883    4.02885081486605    3.86594043105127
S           5.37837847931466    4.30265736404067    4.48863076716595
C           5.92913117958035    4.88230368504150    2.93955338608609
C           4.90936026823680    4.84750790156179    2.01670180949568
C           3.70477605307131    4.36650866402660    2.53445218705124
C           7.27517094129842    5.33409734781052    2.75159164857762
C           8.24232169267081    5.25541740135174    3.74442287994283
C           9.54301658138971    5.72020086749522    3.57631682300294
C           9.98914951917044    6.31624181980463    2.40452010264260
C           9.03241274105102    6.40324742012131    1.36542716381887
C           7.70202910311727    5.91339430395298    1.53303602980587
N           9.12103173206632    6.89240249483492    0.11967510039526
N           7.93702344376247    6.69728309797030   -0.39034462212839
N           7.05129624514302    6.13019036133444    0.38051429875310
C          11.31719161927869    6.82985518014509    2.25082488106310
C           7.60997579525831    7.12918565701309   -1.71915405677352
C           7.02993576334400    8.54021455590472   -1.69324996168062
C          11.83061212834010    7.54973263874127    1.19661462265311
C          13.16186103407440    7.93062579654359    1.37712609125641
C          13.69781423174787    7.49985986457102    2.56876308985083
S          12.52210027055149    6.60894467262408    3.49105173647861
C          -1.78997718525565    2.30028756236243    4.79494268604901
C          -2.59214347562529    3.60281968134651    4.80392662065879
C           2.32895292658001    2.51579189784966    8.98928011377466
C           2.42569376042163    3.94367604526368    9.53027709895323
C          17.80551476485500    7.18586497755897    5.41376375531486
C          16.93121069994890    7.57045904778137    4.38806857062917
C          17.37259725524131    8.46729335023084    3.38170723133723
C          18.63470800506478    9.02760232895405    3.35248487563766
C          19.51013348342487    8.63944101706094    4.37551297120810
C          19.07789449362310    7.72175417249481    5.36685192427368
C          15.58733138598229    7.16779737387791    4.18087616681752
C          15.01555383646127    7.70543443442970    3.06556898217392
S          16.11825058296466    8.76121552252784    2.20170306136855
C          20.85478702935872    9.04008796304324    4.57947997223952
C          21.44819570705532    8.45369975695880    5.65818989636305
S          20.35915205944007    7.36754770224626    6.50134171685033
C          22.78426234582779    8.62323275784360    6.11886701372711
S          23.81747623908583    9.83947742726999    5.42572081169756
C          25.13798865880849    9.37074947437440    6.46192877753022
C          24.76748946784557    8.32989949448260    7.28167580178417
C          23.44638210921031    7.91636694702317    7.09567139881532
C          26.40124793682034   10.04378386620699    6.40406624916427
C          26.60449471307655   11.20152436268230    5.66557146589389
C          27.82330496962971   11.87184800649738    5.62457640789259
C          28.95225265369511   11.43326288294457    6.30297386889224
C          28.78714905162190   10.24350976086462    7.05108851967465
C          27.53076902210614    9.56834934472632    7.11120900933447
N          29.64931786426168    9.54495735880481    7.80435732318082
N          28.94590432291688    8.54617945498125    8.26045609036159
N          27.69433059350429    8.49473179849705    7.89832404724236
C          30.20218351867564   12.13177553591122    6.26616324273007
C          29.50975148979055    7.57786323844301    9.15689528075552
C          29.38442791980759    8.05286784758034   10.60145923095306
C          31.41290232295639   11.73201663406835    6.78308902679178
C          32.43895233485117   12.65724699673688    6.57990417761707
C          32.03121128940763   13.78925764564764    5.91270822859860
S          30.34028481657882   13.69791690700618    5.51334900327734
C          17.40370188903508    6.20447521517932    6.47342178799487
C          17.57461705171623    4.76807965844978    5.97548348771873
C          19.05924668459091    9.95409995860181    2.25310938463420
C          19.79241374529113    9.18665984382436    1.15132331172113
C          33.28726723458666   18.36019431956449    4.30631140671883
C          33.39690396316520   17.06271950656324    4.82474024880076
C          34.65978289444067   16.57347795495895    5.24605587723864
C          35.83113243360432   17.30085261126596    5.16362663449939
C          35.72010687479805   18.60107503915492    4.65274446739571
C          34.45450971952537   19.09634302082739    4.24675704113165
C          32.37052219570263   16.10319898905251    5.01560716212814
C          32.80331695216659   14.93415696084447    5.56883636425878
S          34.52973169903117   14.95013220234104    5.87917928685872
C          36.74436326598860   19.56520415952178    4.47461788278142
C          36.30379146074716   20.75194292334653    3.96722478452680
S          34.57475430108635   20.74208142839625    3.67176624861374
C          37.06673913059925   21.91886192845152    3.68214644908212
S          38.79379859290261   21.92967954595456    3.89379836369365
C          38.89192283428964   23.58902119628220    3.36962547448087
C          37.64319122318159   24.07576972682902    3.05965751304674
C          36.62087387575644   23.13967975441928    3.23150008766288
C          40.15029092726238   24.27007926780801    3.29284899975315
C          41.36029220770961   23.64872365450118    3.56626941082604
C          42.58736791000440   24.30094443854381    3.47562228999459
C          42.71199376942398   25.63196771973015    3.10726473580226
C          41.49661525392563   26.30239093006348    2.83458860716612
C          40.23835186027632   25.63315081142141    2.92343608533681
N          41.24682933012542   27.56918332677803    2.46995637152225
N          39.94910543963479   27.62442841629421    2.35776990363191
N          39.28985418124775   26.52771415918609    2.60862685282236
C          43.98142977862072   26.29484655790249    3.00155382230710
C          39.27429914988640   28.84762385992077    2.02959618329807
C          38.96710138654645   29.64113000713017    3.29626611353547
C          44.23253727724010   27.59413681339315    2.64163244581114
C          45.60255341543442   27.91270076394026    2.63279012821940
C          46.38911874592429   26.86129451268755    2.98477616445200
S          45.47236358945779   25.45331222886715    3.33439519765239
C          31.96829807517655   18.94062339675005    3.89301094512777
C          31.21755387093096   19.49560821465984    5.10503358568219
C          37.13760049801613   16.74662595528931    5.64674679638197
C          37.41824980387036   17.19245058165641    7.08301075303225
H          -3.15991115654479    1.39505936280384    7.17787489722252
H          -2.95783252120662    0.92154944937397    9.72381982324086
H           3.70661896692938    3.37036851481092    6.60514846094254
H           5.05148017359408    5.16740702882303    1.00118192430109
H           2.79736998826107    4.26778830983806    1.96461321384140
H           7.96913836294829    4.81658904765493    4.69346063807975
H          10.23647813153655    5.62420702422062    4.39956071361197
H           6.88172054868208    6.42490816385293   -2.12623207494925
H           8.52878194324194    7.10203646139305   -2.30786287799889
H           6.12859286407473    8.56287083824619   -1.08554583775766
H           6.78164131320631    8.85666235717549   -2.70225313656330
H           7.75319646215024    9.23596082255464   -1.27477868262955
H          11.24161739315335    7.78593463682491    0.32992814547214
H          13.73031594958169    8.50168884735031    0.66399054331136
H          -2.46225879028519    1.45362467907888    4.94359821715724
H          -1.30498135738538    2.18455240964563    3.82288889916845
H          -3.08145607280979    3.74270252781953    5.76532272020018
H          -3.35056590577563    3.58560320553816    4.02489897154806
H          -1.93306347253915    4.44967608676875    4.62740679743459
H           3.30057883998676    2.20434566178573    8.60197286928319
H           2.05281391899213    1.84153457145749    9.80302934106279
H           2.69556474680725    4.63527540885980    8.73533667622260
H           3.17812794727437    4.00079754351701   10.31308385936621
H           1.46929618720724    4.25319500588385    9.94545157904223
H          15.05206345376568    6.49504939835317    4.82714197942063
H          21.38068108900745    9.73330595647819    3.94735805468833
H          25.44770164044977    7.89485146213486    7.99012706095438
H          22.97760678335278    7.12029405009812    7.64731947269091
H          25.77363160590313   11.60505273655045    5.10459631646988
H          27.89670109381932   12.77528500351382    5.03612940936245
H          30.55995717505973    7.44966408306449    8.88738403907374
H          28.96731387374795    6.64181595817296    9.01156968130648
H          29.90881151943655    8.99644888115191   10.73156821649028
H          29.81598523769794    7.31543006227134   11.27214452872327
H          28.33795292812067    8.19393202764219   10.86089402910019
H          31.53126342196753   10.79291009891990    7.29092826197997
H          33.45318834211812   12.51937916097349    6.91173277714960
H          16.36413447073748    6.37179141042566    6.76021812118947
H          18.03065518557659    6.35585840733554    7.35517891859923
H          16.96000523299239    4.59419466178649    5.09507808064534
H          17.28305975893279    4.06258525334524    6.74975934780875
H          18.61359045920057    4.58396833893330    5.71185695246196
H          19.71067402748011   10.73268865113362    2.65346389025428
H          18.17378370321457   10.43315705970641    1.82898943368713
H          20.67732623295956    8.69730071513831    1.55197699709826
H          20.09731751469049    9.86412425604030    0.35742608723906
H          19.14084534522886    8.42611723478950    0.72719973315198
H          31.33780267715655   16.26542301090992    4.76275859883453
H          37.77912867148127   19.39829876232892    4.71571591184420
H          37.49539557615085   25.08344865171651    2.71821008565496
H          35.58089629364003   23.33640322045770    3.03755013630240
H          41.34924289965745   22.60817404741239    3.85787233647493
H          43.48521336543557   23.74284455619333    3.69941948267160
H          38.35154372477370   28.58485591920659    1.50891982106675
H          39.92900539895737   29.41954271990620    1.36922236086023
H          38.32849311530630   29.05974316497659    3.95692486945307
H          38.45807473828190   30.56579447502925    3.03974714612850
H          39.88901060024453   29.88082213594416    3.82062394483871
H          43.44526312545436   28.28151244594339    2.39405368675595
H          45.98907027933323   28.88280371877254    2.37490480228741
H          47.45773553958367   26.82163787506568    3.06058621879044
H          31.36182383744518   18.17598247882810    3.40463836685694
H          32.14256969790174   19.74787766053008    3.17791717617421
H          31.03495309334476   18.70877713151610    5.83347712260600
H          30.26279783761766   19.91584167177037    4.79833624422766
H          31.80328272826512   20.27758995304938    5.58285271512065
H          37.94671793012058   17.08006852460896    4.99474281052033
H          37.09666527271984   15.65551751518335    5.61084857401161
H          37.46022614095826   18.27761796021230    7.14391114523796
H          38.36677845582714   16.78653014168323    7.42617526228166
H          36.63047620057083   16.84075267339288    7.74526259582371
