230
 SCF done       -445.322429743693          0.000875971168
C           4.17413541663955   -2.84616474031783   -4.38381655506996
C           4.64738643122620   -4.16121057773540   -4.54940574268165
C           5.93701352305205   -4.51613803959428   -4.09029305958608
C           6.79836664300157   -3.62762026268053   -3.44585209011991
C           6.33155420731648   -2.30656039104836   -3.29583834077529
C           5.04588367552403   -1.94952697430767   -3.77111241513191
C           3.97988288265311   -5.26756798242332   -5.15369362884464
C           4.70734455447826   -6.40116506053896   -5.12761316922474
S           6.25584736200648   -6.20536110765547   -4.38426462926245
C           6.99505125628336   -1.20688749700514   -2.69724652877223
C           6.25474428673709   -0.06268086530564   -2.66957874486238
S           4.68768114480184   -0.27964365443895   -3.42261093662066
C           2.84663335224673   -2.42860473547437   -4.78798171894777
C           8.08098112532413   -4.06547471391478   -2.93726835681806
C           8.92218230156001   -4.98818405294532   -3.49958392803878
C          10.07620209273338   -5.25970591378260   -2.72810651807596
C          10.09161332318660   -4.53076588521226   -1.56448722501039
S           8.70772286279479   -3.50671037306211   -1.41130208519209
C           2.49127757039123   -1.22047863653217   -5.32410925857996
C           0.40682659955822   -2.19469213112926   -5.14959643904137
S           1.44679708550767   -3.43143848238783   -4.53505744014609
C           6.61290697707423    1.19404589070225   -2.10655716171543
S           8.15081044428295    1.42588085835759   -1.33157326394214
C           7.73494551605819    3.06488151320163   -0.92099975395413
C           6.47725447676703    3.38954944331418   -1.38582794582444
C           5.84867650729482    2.33882837350838   -2.05174082470514
C           8.65755849809795    3.85486557505635   -0.16185122899340
C           8.40704835659517    5.12653445104913    0.33904206631212
C           9.31312940710695    5.84870319376026    1.12955942463667
C          10.56902952888050    5.38017159401664    1.49523840531629
C          10.86397207535909    4.10047446297065    0.96999705161149
C           9.93972547317418    3.36256838080178    0.17874160505749
N          11.96064426219679    3.34569305399641    1.10857536855459
N          11.69096571945619    2.25556173785855    0.44665880824384
N          10.52220345382251    2.19636320305361   -0.12682878327788
C          11.49597717961747    6.07519945139438    2.33782328914271
C          12.64477596660789    1.18983684461209    0.33085166913484
C          13.78685872403893    1.59887275056965   -0.59319985848659
C          11.28426256330635    7.18786204135853    3.12485725269800
C          12.40998368205513    7.57388980185673    3.84807990244937
C          13.50878166378166    6.77206745630058    3.61695063068070
S          13.13029999679155    5.50228349958594    2.49501292850966
Cl         11.31589034805822   -4.56453247142853   -0.37318327117844
Cl         -1.28400987174222   -2.41558382944196   -5.25249279553743
F           7.23156939579551    5.73588679454968    0.08875921433099
F           8.89907628000880    7.06562151321553    1.53384667487711
C           1.10060134639560   -1.07549538296137   -5.53946987568160
O           0.45250090840947   -0.00781109282511   -6.05535588692624
O          11.08333479032923   -6.11168262876466   -3.02138189989566
C          10.93815902198122   -6.91992491376441   -4.17752809968755
C           1.22076019124970    1.15194922700013   -6.32974543472033
C          12.12129042848545   -7.87240938426252   -4.22341079375209
C           0.26361574253269    2.23932140108259   -6.78877748010730
C          17.13328801641357    8.36293942749963    6.66525382521644
C          16.49799596447210    7.68461049917516    5.60574552764946
C          17.25054300780254    6.87167652014266    4.72301538124434
C          18.63128581413852    6.70310588138560    4.82351651449699
C          19.27521882744605    7.41876677167465    5.85673703027402
C          18.51485622733377    8.21909716309093    6.74504784664402
C          15.12492583029569    7.71123427993510    5.26696486682010
C          14.80082291080349    6.92295689349207    4.20108550206656
S          16.20668830683625    6.10635554168904    3.55193184416631
C          20.65848179073776    7.47140525046112    6.15930621056471
C          20.95861224416685    8.23484350472475    7.24916599523074
S          19.52647150345333    8.95192350758534    7.95820315652120
C          16.40718361411077    9.14273701642138    7.64536318460938
C          19.34699992782601    5.82697379770925    3.92068757733267
C          19.06062237180014    5.58692219952198    2.60301592672700
C          19.90451902977862    4.62883386128839    1.99480759934390
C          20.83592714449435    4.14019860674943    2.87726862748932
S          20.68925034309830    4.84930269170402    4.44693061618472
C          16.81923629570224   10.29827646447413    8.25287830977027
C          14.83199126163941    9.96044911676700    9.37631045713892
S          14.87854178142948    8.61474086243086    8.29214483659086
C          22.23380725629618    8.51666686074306    7.81232096792121
S          23.70245879238730    7.91012882700999    7.10862405902638
C          24.65642551987578    8.71811764844434    8.31976390047076
C          23.85366856988496    9.39771907872210    9.21249726191408
C          22.49519918738855    9.28364621164145    8.92703166648338
C          26.08483864111959    8.63421954020997    8.27155752655890
C          26.96192577156198    9.31166443647522    9.10800049697168
C          28.35594896068225    9.22791710672571    8.99579778581635
C          29.02560199925828    8.46806288271523    8.04321682570109
C          28.15713990875551    7.74830151395240    7.18352653793938
C          26.74002863326254    7.83471860039325    7.30554758856662
N          28.41011165146299    6.90922107670403    6.16745684838335
N          27.23255481251823    6.54089549811302    5.74432405672863
N          26.20643403051143    7.04635520048259    6.36684068859806
C          30.45081389996425    8.42036673024432    7.92181031507930
C          27.06921421863977    5.61562761337779    4.65775112611796
C          26.15090422199286    6.20088359411198    3.59343683775636
C          31.18358681262374    7.72190204862403    6.98319516934196
C          32.55980491786785    7.89985275783475    7.11328745166568
C          32.90448499249087    8.73400152822098    8.15565019460336
S          31.49779489086851    9.30771292193397    8.99066038767555
Cl         22.04475338570318    2.98449849861412    2.52771830044725
Cl         13.52850585317100   10.19712115609366   10.45449865451099
F          26.49477550190871   10.11425199515576   10.08333267389356
F          29.06472465499445    9.95731952435798    9.88004508977252
C          15.92749781259075   10.77774765458090    9.24054988085966
O          16.06152901062179   11.88475542619977   10.00321086134454
O          19.86593557477639    4.19078325859693    0.71651813830318
C          18.79909437436342    4.65122594034887   -0.09643963605807
C          17.28538304256801   12.59537814272395    9.91037560270755
C          18.88683120369425    3.92239836470455   -1.42702253451622
C          17.25779487567334   13.69772910323538   10.95584987573789
C          36.51883412648709   10.95241621666695   10.80394138379886
C          35.88497420076826   10.19240570852605    9.80016788432964
C          36.65367483178690    9.57533760484748    8.78265757126617
C          38.04164364281912    9.66160534833919    8.70737615115364
C          38.67512261703096   10.44710435457544    9.69336310751832
C          37.90257381597992   11.07263297950926   10.70262427940801
C          34.50110913947100    9.94580370358819    9.64102536669077
C          34.19895860188751    9.14729307594679    8.57692836180182
S          35.63558930560330    8.66645318813221    7.69526222597930
C          40.05636969585056   10.73455843819713    9.82869873254547
C          40.35263984723485   11.51928278547478   10.90567655682366
S          38.91802616630056   11.95214778178085   11.80921352599102
C          35.80252847913588   11.55164673602126   11.90957543041481
C          38.77787842193138    8.95564134536933    7.67956288924520
C          38.40315880193486    8.76764968479687    6.37664958370244
C          39.30341036934478    7.97195482534596    5.62990296691492
C          40.36310731729964    7.54966844440885    6.39426668701831
S          40.27370796207109    8.13205435285451    8.01973275361848
C          36.09826301029566   12.73184027193157   12.53864196199711
C          34.36396069295616   12.00681147577093   13.87638048443922
S          34.48009201872608   10.74280672123601   12.70290160950855
C          41.61793785323085   12.01398535572988   11.33487559404407
S          41.71075726976875   13.13058486960776   12.66102793139304
C          43.44103409683523   13.20950136290183   12.52791010350521
C          43.89338902712015   12.40495058681899   11.50247025020517
C          42.87051406616485   11.73481619145141   10.83092765823165
C          44.16918804427475   14.04174716900538   13.43894203682596
C          45.54820301946177   14.18007550349814   13.49992478554256
C          46.20227241677548   15.00470784142437   14.42898692363606
C          45.55634672433337   15.77212145198972   15.38937279823879
C          44.14405199756381   15.65565871624107   15.34989408229332
C          43.48611909159445   14.82004473038218   14.40306107365517
N          43.18660253745391   16.22916574040414   16.09518845239572
N          42.06964089557649   15.76174270433553   15.61197676057014
N          42.17039590410258   14.92875312740096   14.61551567698132
C          46.22372829886107   16.61072937538942   16.34277894659293
C          40.79345073284169   16.12962792990619   16.15684498918663
C          40.08234955592901   14.90228631340945   16.71396919945180
C          45.62997393900553   17.38540864400165   17.31244478930662
C          46.55533226937145   18.09390392224166   18.09295934644584
C          47.84395247463971   17.85875993386604   17.71923784006153
S          47.95691474909921   16.77092559019709   16.40337871232602
Cl         41.66144402549294    6.57503847888689    5.86233411797541
Cl         33.19841685517865   11.96555822912896   15.12381952175010
F          46.33737191144817   13.50273468498580   12.64426264661532
F          47.54803037888982   15.02710526891256   14.35802570244463
C          35.28419830397501   13.00351329351762   13.66171967118212
O          35.34588848882898   14.07864105269606   14.48058132754787
O          39.20973291362418    7.62101712849172    4.32789032740266
C          38.05130758676179    8.03415468928620    3.62333097380821
C          36.41770024835331   14.98460003863334   14.28241004342080
C          38.13996318113335    7.46218622869917    2.21824149925715
C          36.35589489719472   16.01646341370761   15.39683860290332
H           3.00111357039936   -5.20518333037557   -5.59036157534305
H           4.44160031802812   -7.36618619675641   -5.51193923828571
H           7.99060896512694   -1.24566411508601   -2.29658840177407
H           8.73886600580565   -5.42874394754589   -4.46122698877946
H           3.21274984574658   -0.47240961920374   -5.59374961462794
H           6.02305047910428    4.35259404364639   -1.24840864611170
H           4.86208343884488    2.39906767316278   -2.47639566529743
H          12.10795225203897    0.32509133735353   -0.06185684160418
H          13.03154053597648    0.97071501414834    1.32887868271933
H          13.40977633183846    1.81171883565279   -1.59056487250398
H          14.51327736697730    0.79429362190035   -0.65820583888645
H          14.27650252136675    2.48753423293712   -0.20278056629524
H          10.34295483709183    7.70070528272769    3.18624280546733
H          12.42748952315396    8.42024321879594    4.50959386133004
H          10.92231949577771   -6.28672238576494   -5.07538086167832
H           9.99513424829435   -7.48034694408413   -4.12526580279701
H           1.95709301472782    0.93461694154277   -7.11583206020667
H           1.75583165999708    1.46789082948816   -5.42406476187274
H          13.04948012273131   -7.30932225441203   -4.26591952172960
H          12.04794578720926   -8.50945337812700   -5.09998085116637
H          12.13332264332529   -8.49159795062058   -3.33077098276589
H          -0.27057096337225    1.91210237436386   -7.67639385186334
H           0.81700784011558    3.14555981905718   -7.01724571787098
H          -0.46120978661495    2.44965287533816   -6.00731742896126
H          14.39807658804480    8.29532770407504    5.79730600637871
H          21.42298892490363    6.97586155120832    5.59089731531900
H          18.29345617595846    6.11660393502016    2.07110578535521
H          17.71677967886925   10.81389461315806    7.96808409650846
H          24.23378332704296    9.95886726360625   10.04498846449413
H          21.71685040180607    9.74439104787827    9.50943895458840
H          26.63523079546197    4.69187113997946    5.05261103666199
H          28.06650526191754    5.40901954622401    4.26634909028331
H          25.19472260109480    6.46037920161708    4.03984291278287
H          25.98839887554283    5.47183675931928    2.80525463648095
H          26.59048682954840    7.09555291676164    3.15954184990635
H          30.71316346167986    7.11047977092948    6.23587747437825
H          33.29327444195256    7.43974300973429    6.47488545176053
H          18.88819496305171    5.73562944208090   -0.24891531953170
H          17.83873325142428    4.44256708591357    0.39383385068460
H          17.39189370792939   13.02502853622999    8.90470497587491
H          18.12694278209769   11.91360370138728   10.09260080238265
H          19.84340553804883    4.12699774669386   -1.89968055341793
H          18.08570803912656    4.25322865191945   -2.08150446590889
H          18.80154477239009    2.85079845971128   -1.26955395191507
H          16.41613521256332   14.36015928649907   10.77411949466890
H          18.18005438137731   14.26976208536066   10.91266693558915
H          17.15014530884159   13.26618879141211   11.94708287914254
H          33.74064374410266   10.35000585443133   10.28322138125977
H          40.80475995409552   10.38681595331464    9.14272246646585
H          37.52587669798377    9.22222913010348    5.95652744888738
H          36.85033244332870   13.40810078743430   12.17913302276481
H          44.93124631072902   12.30372491144288   11.24496588285175
H          43.03904725968685   11.06223909255286   10.00977944792715
H          40.19516158192639   16.57766376972500   15.35838682406593
H          40.98445807741513   16.87084800073892   16.93425395443779
H          39.95800513329534   14.16234409248111   15.92762165983013
H          39.10592985946921   15.18343017624870   17.09654834215377
H          40.66128820150787   14.46157938216544   17.52178282377061
H          44.56471836519162   17.42767625635503   17.43942645129340
H          46.27858264300143   18.75075397509412   18.89806757375359
H          48.74076353477617   18.26712066165475   18.14161469410289
H          38.00817215045461    9.13148791153445    3.58669976307197
H          37.15187386657237    7.66364820994237    4.13365359504018
H          36.31721345101629   15.47524715854462   13.30450636702548
H          37.37425794745204   14.44491855461296   14.30814070181587
H          39.03481411536563    7.83012575391004    1.72411156337226
H          37.26648095896643    7.75729340757330    1.64406854267013
H          38.19081827206409    6.37784082033090    2.26210279447922
H          35.40181455539179   16.53513095038474   15.36713133683079
H          37.15891922885226   16.73840001032834   15.27884038699372
H          36.44934750871555   15.52567101220437   16.36165153558090
