332
 SCF done       -534.712446998164          0.000991004152
C          -0.83378652577905    7.20263486525367    5.97894150289797
C          -1.08668618304681    6.76190065304963    7.29106964309578
C          -0.02145659414586    6.32614189162379    8.11146637794114
C           1.30827246077484    6.31067793602372    7.69769734272413
C           1.55771504193654    6.72910503436699    6.37704228526087
C           0.48703128398721    7.14657614148413    5.54855580578283
C          -2.34153255788197    6.65966705064472    7.96166448073986
C          -2.22738366798015    6.20618909119345    9.22582186007197
S          -0.59842662488497    5.85592838051519    9.68911753201462
C           2.79630903260735    6.77169246320984    5.69249471579047
C           2.70024899769750    7.21509930790861    4.40648636306625
S           1.05213323703053    7.60662695878263    3.96498624079829
C          -1.90059952744678    7.70443311443987    5.13516453263614
C           2.36363183108081    5.86858011357602    8.58671083945811
C           2.32732444366284    4.79243439485419    9.43143181801017
C           3.51895394978584    4.65611004750493   10.16070699956203
C           4.46514901506091    5.63999551879441    9.89155078808143
S           3.87850231378237    6.75111850254172    8.70403623290428
C          -2.90224232383785    8.56600250786885    5.49117322193022
C          -3.75986600379362    8.84504322946198    4.41442975727045
C          -3.41710818109039    8.19050899673618    3.23547797546539
S          -2.00507710954976    7.21760031576877    3.45221730858974
C           3.76173032718130    7.35797118576305    3.46880395320250
S           5.40941630015246    7.14343367253125    3.97301847275971
C           5.97999599455241    7.44322569613561    2.35723396103605
C           4.93031318828962    7.69918431197444    1.50010656214470
C           3.68459048797873    7.65841084336870    2.12696289109984
C           7.38925019774314    7.40490747750400    2.10534497837032
C           7.99942408184131    7.48074980708733    0.85870842242968
C           9.38914756405792    7.44026028633087    0.66241213793067
C          10.31114867070492    7.32960179866846    1.69521095518192
C           9.71359658862790    7.25395763287142    2.97541729029858
C           8.30773355430792    7.28154200814780    3.17449132026418
N          10.28408246626967    7.14891914277220    4.18162961620863
N           9.28306860845898    7.11884096744006    5.01589169304277
N           8.09160479541101    7.19102924947854    4.49337381109330
C          11.73678592066137    7.29533129204917    1.56498276398629
C           9.48738065876625    6.96741303685208    6.42787744948798
C           9.77282639709691    5.50855914367493    6.76831531999103
C          12.54231520919849    7.29578689796865    0.44547626354142
C          13.90636147014750    7.26279646156938    0.74484801723928
C          14.16266377027500    7.24470999450082    2.09715466531253
S          12.68813931268679    7.25041004218496    3.01771434048471
F           7.24665821723472    7.59437815072955   -0.25360108796654
F           9.81522068088239    7.52103282867030   -0.61347736660716
S          -5.16386520454494    9.82023949034169    4.18628621807928
C          -5.28263211919102    9.33735924585832    2.50203816996801
C          -4.27674188808838    8.47293993824654    2.16304237936163
Si         -6.62504785681315   10.06578614295554    1.43581741707808
C          -6.08743939809783   11.80099373231993    0.92124842721037
S           4.12025758812855    3.53192063458725   11.31931963856950
C           5.64509002369107    4.39370308339038   11.43857252906840
C           5.65705601497320    5.48971271121850   10.61546203683806
Si          7.00872026885981    3.75921978001375   12.54031669348053
C           6.33299619710190    2.42199212402889   13.68256288955027
C          -6.84334801701107    8.96146849639561   -0.07573408540955
C          -8.19934086215266   10.15057022630238    2.46882039944546
C          -4.71630050704956   11.85480282387227    0.23764929037665
C          -9.41325454823779   10.72676414091367    1.73255992181521
C          -7.36067967726283    7.55207470875834    0.23216715918493
C           8.38627819083865    3.07330319489040   11.44364885298018
C           7.63585060660526    5.21645436448369   13.56246054116938
C           8.80654646482867    4.87896478116178   14.49062531205436
C           8.96489973530594    4.07830236011174   10.44088889599361
C           6.07230809052424    1.06588160401184   13.01773958894379
C          17.32026448138902    7.34148600449338    5.94640392178787
C          16.86573197870628    7.28080031362960    4.61194062351136
C          17.78352007468953    7.20477180698311    3.53730526782323
C          19.16142292388594    7.19935376708762    3.72272889346960
C          19.61576377407387    7.32306032089728    5.05231276068665
C          18.69529811744147    7.39090751064451    6.12838273782240
C          15.52939631233389    7.31789790737507    4.15640640881214
C          15.39900365134307    7.23064425991411    2.80107672878577
S          16.95287378131020    7.11130911099579    2.00276342937135
C          20.94981128095975    7.43839430129945    5.50290829798276
C          21.07217325328390    7.55491590415468    6.85728215611238
S          19.51669417348308    7.52862088185488    7.66114307502520
C          16.35459455002986    7.39218249187697    7.02447055387045
C          20.07654924549971    7.07509421225511    2.60717097547301
C          19.97198744517188    7.66135788529194    1.37474505270268
C          21.03469330213061    7.30182548177369    0.53045774045653
C          21.94533569530969    6.42319226048028    1.10944913636324
S          21.48785532488901    6.03492140582339    2.72885500218803
C          15.18623595009892    6.68241497632884    7.10918333580247
C          14.40267193960479    7.09192021624927    8.19823127167882
C          14.97674697813497    8.10637085808707    8.95810553344656
S          16.52671797245402    8.55093742553133    8.33179842709750
C          22.29202205228088    7.71092897730064    7.57195803883012
S          23.78558624040850    7.82139304098164    6.68954212532115
C          24.68687040010574    8.01185542467515    8.16385258755122
C          23.85155712403448    7.97871503621912    9.26146064354767
C          22.50641847131045    7.81130427013164    8.92848386838904
C          26.10354547813887    8.20327219920634    8.08218113127061
C          26.96929875886869    8.40467299679307    9.14861419077035
C          28.34425275480269    8.63371483535452    8.99385059354589
C          28.99822056806426    8.69556034104752    7.76823005461512
C          28.14364105192574    8.47311536826313    6.65856646511591
C          26.75100248958698    8.22928511608838    6.82380703131519
N          28.39333704372080    8.43331088234713    5.34075049021865
N          27.23634456211172    8.18209503964641    4.79421868047501
N          26.22693088630601    8.05099977617621    5.60678234186997
C          30.39324930099775    8.96969208927677    7.60757135675761
C          27.07242600327114    8.07063007842680    3.37227470653951
C          26.12494025534454    9.15012926697786    2.86301889033195
C          31.06590183637626    9.11890986364658    6.41147627219331
C          32.41985135781746    9.40201063288984    6.57076279473607
C          32.81042617944398    9.46858888864993    7.89125186680148
S          31.47242885181645    9.17914525839522    8.95670009875172
F          26.50225556659172    8.39688886476898   10.41208478188713
F          29.05024049246831    8.81736069161282   10.12750511093802
S          12.83194878389685    6.69560727446286    8.78763506112250
C          12.94816254203096    7.91487592492210   10.04871028079399
C          14.15587010005559    8.55771476969315   10.00364317787406
Si         11.49318402379430    8.19156310888373   11.17744185512952
C          11.44832866635867    6.80812177910892   12.45863249526732
S          21.51472586779755    7.70639246556889   -1.07570089585118
C          22.94435247263944    6.69425050489519   -0.95369166412429
C          23.01517677461048    6.08228162607516    0.26956857466287
Si         24.10720670574626    6.55164363714737   -2.40120401623218
C          24.13952010996965    8.21915782926184   -3.27781148425492
C          11.69035567438731    9.87434879952967   11.99954488443789
C           9.94892010807752    8.13459416306831   10.09185326443764
C          12.67960102937472    6.75743601725399   13.37052059046175
C           8.63900454273957    8.46644614220597   10.81279609821446
C          11.62649220531110   11.06508020083070   11.03620017976042
C          25.80914996526416    6.09980738083034   -1.72260062778485
C          23.47067171767717    5.20773811617242   -3.56245884695255
C          23.21881685355015    3.85668521646945   -2.88305029124001
C          26.39071659404648    7.11726865448964   -0.73493825355728
C          25.07487614356770    8.28391653687527   -4.48946552140239
C          36.63060459438093   10.09506801732178   11.07044588044660
C          35.89379755042550   10.03731073377452    9.86971050004217
C          36.52776391938833   10.31410657802716    8.63423989719314
C          37.86958383902869   10.66059401091179    8.52304459336104
C          38.59351120087722   10.76198079624079    9.72783752410933
C          37.96053595110592   10.48497367700712   10.96481949575030
C          34.52021051736458    9.73648329059991    9.70243352996122
C          34.11189778553342    9.73296142762270    8.40057116976601
S          35.42111799170213   10.12440740668869    7.30082777004529
C          39.94447566254459   11.14084210421465    9.90332489561590
C          40.35614457335363   11.12924516330483   11.20437324998222
S          39.07303937120464   10.65447003816361   12.29642865286116
C          36.02220484715292    9.74025018693567   12.33554285782714
C          38.47934270908035   10.89395287500051    7.22972091466301
C          37.93538566247096   11.56359126653173    6.16723474865817
C          38.79366835666549   11.57020920435985    5.05635177555477
C          39.98923942409692   10.88883576358776    5.25934955880976
S          40.06564843333199   10.23642100324734    6.85757024218612
C          35.18911464064647    8.68283044006958   12.58469009317841
C          34.78929442420397    8.63707356809927   13.92955753940146
C          35.31052110421487    9.66546389961053   14.70918659583706
S          36.32309772477485   10.70530489226228   13.77083622487456
C          41.65018645045654   11.45942996144112   11.69415727848856
S          42.92051551906323   11.90044719176396   10.59282179969729
C          44.03394661116470   12.12437189991221   11.91004335095605
C          43.42767626704556   11.86269672910378   13.12089149941644
C          42.08967500936236   11.48725729067814   12.99887907791973
C          45.37649724187403   12.53596120583735   11.62556229997877
C          46.35855488849499   12.81902551372913   12.56384684703099
C          47.65715082209692   13.22956507048235   12.22492718433433
C          48.11256781674417   13.40048639936614   10.92451699340821
C          47.13269337678052   13.11498340807314    9.94074347233611
C          45.81628826405230   12.69805495753348   10.29038766783580
N          47.18570545927593   13.15567831470908    8.60038469720089
N          45.99586312177707   12.78881912015085    8.21326529076280
N          45.14004788573273   12.50479315044324    9.15309478882509
C          49.43930033160104   13.82443256941923   10.58034486496241
C          45.63713577122851   12.71536820625160    6.82517403131320
C          44.54340133632088   13.72713218513802    6.50438243768255
C          49.94246154150251   14.00561337602539    9.31321672791605
C          51.28002082769719   14.42909331365619    9.30819238507578
C          51.78955164716653   14.56861263982076   10.56333529187783
S          50.64891119575196   14.18539129151443   11.77976335118834
F          46.09414489058318   12.71198024924654   13.88040648729506
F          48.49147354198195   13.46717584765962   13.25683443746158
S          33.79115348555721    7.59723502664803   14.87527953102271
C          34.08159368565432    8.55459735335920   16.31735977328389
C          34.90603965090101    9.61511149765311   16.05142232944761
Si         33.24566149044942    8.08391925680091   17.91400835487930
C          33.17004144919942    6.20230590900923   17.98910506061915
S          38.73655820300089   12.23831644801863    3.46860519250255
C          40.32228118024344   11.58951387414858    3.08280496446736
C          40.84435471382369   10.90367455977381    4.14791426882796
Si         41.11453413085201   11.95143458383830    1.43587037501650
C          39.82975038653483   11.91457194620712    0.05715131928187
C          34.26127139911419    8.79198571298459   19.33583416057049
C          31.50399784347232    8.81182951782362   17.90358398441495
C          32.52055478837204    5.64081054163467   19.25808258059606
C          31.45843534936956   10.32651241638352   17.67116798094762
C          35.68099916888315    8.22496959739809   19.44709008528093
C          41.91546206658159   13.65803319993766    1.56740039299510
C          42.41875307049175   10.62143181758133    1.14113068854879
C          43.25334985389250   10.83348707558417   -0.12499460899515
C          42.96035340307332   13.76791696117073    2.68429450595745
C          38.89439667103294   13.12752721354028    0.00649431744927
H          -3.28126970125942    6.89758932914447    7.49856240778313
H          -3.01003684723192    6.03461296894718    9.93864875471018
H           3.73492668252354    6.47129201973155    6.12053060832544
H           1.50025762443287    4.11025493367501    9.49538646053601
H          -2.98903047575110    9.01068524701098    6.46546171996103
H           5.05833985457698    7.91523450949089    0.45587247407686
H           2.75017359041630    7.83404878111653    1.62373123092308
H           8.57963632132824    7.31424507806265    6.92348034177914
H          10.33905442195518    7.58814598907479    6.71388681226247
H           8.92153043140567    4.88405145975246    6.50911883582541
H           9.97230505354092    5.41200698690090    7.83110492880408
H          10.64579957036553    5.16611385322082    6.21909594294657
H          12.15825917346787    7.31834306965458   -0.55755639621136
H          14.68618847107922    7.25779392671159    0.00382734864304
H          -4.16477479488816    8.06203197845173    1.17687758763483
H          -6.05503178900598   12.45688164809537    1.79585629026429
H          -6.82099922420787   12.24512646593996    0.24360127281748
H           6.49453511960426    6.15850076306115   10.54477466399058
H           5.39617822257834    2.76078418312166   14.13317828500154
H           7.01873605628946    2.25623054498232   14.51721895885145
H          -5.89771693284296    8.86626921630988   -0.61532201009572
H          -7.53416557678385    9.43061439654545   -0.78083827739542
H          -8.02366128132915   10.75483877515161    3.36334563222008
H          -8.46509652795709    9.15615615395388    2.83767853037600
H          -3.94878366136087   11.44930035200818    0.89267079468085
H          -4.44830345752685   12.87903272830466   -0.01199153955274
H          -4.72263770459461   11.27064019602997   -0.67901956717670
H          -9.21017239273601   11.74058108998194    1.39741302190613
H         -10.28501647812614   10.75064075391177    2.38313481023878
H          -9.65440560031742   10.12249133568884    0.86154882003072
H          -6.69491490087586    7.04369052734266    0.92526652108548
H          -7.42901391414744    6.95780562929776   -0.67659478144963
H          -8.34826288279511    7.59790154935671    0.68376588812131
H           8.02630580825147    2.20911824237241   10.87880623574470
H           9.20617197023036    2.70022711970485   12.06325025988953
H           6.82700489986751    5.63084646297431   14.17023700743038
H           7.94991905419637    6.02909049257461   12.90261210383923
H           8.51963356441845    4.11033871208297   15.20335722301621
H           9.12460041856273    5.75660963098134   15.05027373116646
H           9.65461688077095    4.51233704690804   13.91831130372110
H           8.19071044299798    4.41365285145376    9.75509410906757
H           9.76622654279525    3.62564663121529    9.85986090218531
H           9.36477649294173    4.94769165441899   10.95655891609837
H           5.36767430407915    1.17156612108803   12.19699629121307
H           5.65622231148999    0.36119553339206   13.73448054660938
H           6.99580842990909    0.64769652554197   12.62554400292015
H          14.67788357005053    7.44080078334539    4.79969072584280
H          21.80767308266338    7.45688024465985    4.85661227370058
H          19.19180627864075    8.34753304525836    1.10311212938344
H          14.91880658491336    5.88862701094251    6.43662367080652
H          24.20094764333236    8.07634054950506   10.27252057016778
H          21.70827699624003    7.76711587424885    9.64847558246330
H          26.66294187420198    7.08142244475456    3.14942290841486
H          28.06515463075762    8.16610721812820    2.93023803210375
H          25.16220647534789    9.05535860884190    3.35856613793729
H          25.98572092196041    9.04354989375388    1.79128185811063
H          26.52935300598400   10.13852895419629    3.06683923249970
H          30.56921666648943    9.02318369740940    5.46438009051217
H          33.10703381127426    9.55451631827921    5.75734554635241
H          14.43179824139345    9.33375156413562   10.69327323157923
H          11.36210806841259    5.83878221344388   11.95891517877945
H          10.56290811959126    6.89782324130093   13.09202102346381
H          23.80929726494253    5.41347383194544    0.54575637209144
H          24.42885447027203    9.01031876407082   -2.58089582498683
H          23.13140449572127    8.48082275229528   -3.61050312074098
H          12.64032643284979    9.92345050191745   12.53754990134792
H          10.91750609938850   10.01000168978466   12.76030783159104
H           9.84939378517787    7.14397828545842    9.63965877582369
H          10.05781887057271    8.82847370538707    9.25383455986530
H          13.58573498022596    6.64436688458163   12.78001428774275
H          12.61355035397776    5.92077614781476   14.06260124701485
H          12.76393432643923    7.67310626840433   13.94986986744871
H           8.46367295930246    7.76970514261173   11.62909402435042
H           7.79433089017980    8.41363299705529   10.12840997862599
H           8.67428168909228    9.46942321140022   11.22980370887527
H          12.39240430083900   10.97890668896367   10.26929594611012
H          11.77862012049084   12.00124453063202   11.56915621520516
H          10.65871430318693   11.10758163688861   10.54329486408723
H          26.51800090765703    5.97890630365072   -2.54527785207067
H          25.77303699062155    5.12742049464230   -1.22508794967666
H          24.17287550334147    5.04764913213910   -4.38435344998899
H          22.53566675643804    5.53041359354039   -4.02871729723276
H          24.14179464041746    3.45794118675845   -2.46981487471604
H          22.82338494116413    3.13432629266071   -3.59359174144233
H          22.50342681814177    3.96680897238837   -2.07158875472377
H          26.52270920417866    8.08307634891074   -1.21592514801773
H          27.35765130276999    6.78703339934370   -0.36051976433612
H          25.71900616823756    7.24680239161847    0.11040865055825
H          26.10010342449528    8.07646591152151   -4.19315749062105
H          25.04552121293879    9.26968711654813   -4.94845479712245
H          24.78207390249633    7.55115817656903   -5.23688863895757
H          33.84400788245767    9.54868592578411   10.51667080343401
H          40.60227315226665   11.42774383137199    9.10367917890684
H          36.98298603392121   12.05911066369995    6.19659110868522
H          34.91590194157893    7.95018856986423   11.84787578618847
H          43.93371816319677   11.93780862551237   14.06508145958281
H          41.45329594087567   11.24439079490461   13.83158267612063
H          45.28025823561393   11.70306350253459    6.61666353825178
H          46.54503852729344   12.91263072348014    6.25337111363994
H          43.67167464175115   13.53222578933343    7.12356158987666
H          44.26185385868742   13.64740031750814    5.45851752667105
H          44.89222830150388   14.73879021730536    6.69695428144401
H          49.35253704571331   13.83363612377705    8.43300470092154
H          51.84251075189185   14.62217716900699    8.41241976205509
H          52.77658394736442   14.87603604490937   10.84732184365942
H          35.20538080204651   10.32647884683000   16.79860379431684
H          34.17470958287878    5.77919432931465   17.90440645460989
H          32.61971424218022    5.81885175850175   17.12538220973821
H          41.80656880063840   10.42693191851658    4.12200921215146
H          39.21268747241697   11.01618776919604    0.14792728429364
H          40.32423018154767   11.83463637163631   -0.91470038278794
H          33.74806156469236    8.61473584659063   20.28436404983282
H          34.33608611965448    9.87853508719060   19.24469241880707
H          30.99243431700670    8.59802428297085   18.84547502030783
H          30.90459405119276    8.33314856625932   17.12402110921681
H          33.06725031833862    5.96129065869759   20.14153589610750
H          32.51096075322400    4.55304091464187   19.23890711325958
H          31.49480119691519    5.98917537042873   19.34797374764433
H          31.98364884245284   10.85148095952636   18.46506453284790
H          30.43116312154774   10.68333165087102   17.64682329703987
H          31.93172620783107   10.57989316007622   16.72551580847637
H          35.65107017670041    7.15373429531516   19.62857441645722
H          36.22252940802034    8.69442920518083   20.26583360282607
H          36.23362205254092    8.39691598884861   18.52659589369094
H          41.15042472491150   14.41721209129570    1.75064884471884
H          42.39085394901331   13.93735104210346    0.62365833419938
H          41.94939155214861    9.63622307912735    1.07803714048164
H          43.10585201936620   10.56592379480431    1.98868148260302
H          42.61764461370579   10.84178850646654   -1.00645542845275
H          43.98698184753532   10.03865166168927   -0.24311469258454
H          43.78296599384468   11.78175984972078   -0.07927332613331
H          42.50850134146429   13.52593100658737    3.64390281531680
H          43.36618603590599   14.77611174517571    2.73832656086192
H          43.78154154218399   13.07688944400617    2.50988484041080
H          38.35454668583026   13.23298059741286    0.94394914650271
H          38.16771823611491   13.01903947432365   -0.79576627927346
H          39.45977637070862   14.03953380002475   -0.16641486479960
