224
 SCF done       -371.354764389930          0.000235293482
C          -1.44505557436292    5.74080726839405    5.94526291566383
C          -1.89323571645874    6.22949659330552    7.18525651701690
C          -1.01626831546224    6.95523315217499    8.02248035604796
C           0.31086548813831    7.22270162460559    7.69494276332612
C           0.77190305636928    6.69132189806867    6.47566350951344
C          -0.11072806571644    5.97077707975294    5.63477018793956
C          -3.18715454488085    6.09139096753969    7.76989928842595
C          -3.29267754066650    6.70556112596079    8.96475122685195
S          -1.83255310271316    7.48340445429789    9.47160082073879
C           2.07657092639792    6.76234993281034    5.92723741870933
C           2.19367989722340    6.16909584932141    4.70546982634690
S           0.68210762155672    5.46479299690183    4.16651340838098
C          -2.34271483163351    5.04534568091651    5.04231134582154
C           1.14827506289613    8.03090025849703    8.55779477481077
C           1.20699095341453    8.03258617963968    9.92297066991371
C           2.09873733532264    8.99141144147921   10.44327930951192
C           2.71148318531481    9.73960935128967    9.48624618558093
S           2.20365890316388    9.25408315978428    7.90267460253699
C          -3.61500486514813    5.38879500951490    4.68519358433864
C          -4.20393881740263    4.48158182962252    3.78088586162569
C          -3.39235860675986    3.43977010025725    3.45446627925526
S          -1.85963115774055    3.57089375410244    4.25348216483770
C           3.35605699215613    6.08111873541945    3.88914856718066
S           4.90013731434319    6.62001733419563    4.47995259761712
C           5.66883562323410    6.20890742607968    2.97088568808704
C           4.75448375702588    5.68947265260337    2.08351935505840
C           3.45955409864323    5.61057344108153    2.60064162065709
C           7.07230317943166    6.41701517940698    2.77242590490833
C           7.93025300526379    6.78816684567035    3.79867528917408
C           9.29518355717656    6.98563121391213    3.61320319315294
C           9.91938666247009    6.84953056670493    2.38077629751642
C           9.07284942806307    6.48248488349970    1.30811910012972
C           7.67679608015317    6.25643638789497    1.50329880132577
N           9.33301026013083    6.26183092454521    0.01094575911668
N           8.17908160868576    5.93309583791907   -0.49956984322468
N           7.16097568706036    5.90977030375560    0.31475890613183
C          11.32307510096217    7.06519148212048    2.19290697921757
C           8.02797993879616    5.65834797311694   -1.89988339490858
C           7.64009626217856    6.92749889953061   -2.65283470900332
C          12.02095698046037    7.12405485884852    1.00853728424086
C          13.38639614314163    7.36282291590041    1.17770752982226
C          13.76222388314956    7.47734246866607    2.49625490192374
S          12.39034066033587    7.30007662656947    3.55072015326263
C           3.72505991920505   10.81884965994133    9.65257870411113
C          -3.65802622675941    2.30988249025852    2.52026267467593
C          -2.84372501351417    2.45199039446943    1.23293859218398
C           5.10468500171382   10.36664528027299    9.17001367119522
C          17.56918739363001    7.85210185527563    5.72449676855515
C          16.84205339828539    7.88335069954594    4.51860294226391
C          17.50128024182706    8.17449526999489    3.30036026588640
C          18.85707602148497    8.47183785067990    3.21311311039748
C          19.57404041742092    8.48654172901649    4.42644371146540
C          18.91827291343708    8.17088786443737    5.64171204840307
C          15.45871405034911    7.64573942843007    4.32991935946530
C          15.06545052412388    7.69307562133127    3.02497495104202
S          16.40028874833232    8.06816753581772    1.95065139768248
C          20.94220107747203    8.78818605807858    4.63232911394040
C          21.34435225626304    8.66523660999516    5.92989330728061
S          20.02892314376748    8.18922446126162    6.98527119315681
C          16.93287040341578    7.48046039661257    6.97263048975015
C          19.48378081471885    8.73081312979022    1.93240931375994
C          18.97745414221608    9.43330499051232    0.87515593389684
C          19.83449490332112    9.45732685522022   -0.24269438505455
C          20.98889065206577    8.76170453608589   -0.05697658092675
S          21.04465343587763    8.06854172140681    1.52993658580837
C          16.05676772861215    6.45766628394115    7.20178470614818
C          15.63390889478364    6.37618633802683    8.54368678969306
C          16.17299340090586    7.33844464953004    9.34019817262781
S          17.23952618556421    8.36605377385665    8.43969673236805
C          22.64709673909364    8.86633148864884    6.46505436179349
S          23.92516031259530    9.52929082708802    5.48990454666193
C          25.05522277457457    9.40499467639156    6.81116331681187
C          24.44623602238691    8.87447354343817    7.92537943156408
C          23.09493038480235    8.58049703615775    7.73439005627975
C          26.41599670883506    9.82998992217754    6.67076896868172
C          26.87886270961033   10.52334249174837    5.56069401615031
C          28.19503219390005   10.95626833917816    5.43045051806442
C          29.16966891608734   10.71628550184645    6.38948302424523
C          28.73776399640132    9.99417302523530    7.52709555182886
C          27.38216024936802    9.57087897331577    7.67166242951714
N          29.39951379709440    9.58690933550081    8.62022865592978
N          28.49717888213209    8.97601978281008    9.33649784863199
N          27.29022871799754    8.92850968377748    8.84560965137796
C          30.52212641639466   11.16854229213930    6.25529594332760
C          28.80865672857763    8.42402445319395   10.62393379724803
C          28.65681561465080    9.48494944213414   11.70994919902482
C          31.59774039682969   10.87456421402287    7.06167588656935
C          32.78513485246997   11.48342157265041    6.65071901635698
C          32.63874444345940   12.26522123318079    5.52800621308534
S          30.99521870517794   12.23360019658041    4.95913177921159
C          22.13694711372595    8.59546039283177   -0.99176941328625
C          15.98536493371713    7.54832088901877   10.80319550122420
C          17.24157358387291    7.15499140819475   11.58294402005060
C          23.34559031023899    9.41586853549387   -0.53632708286017
C          34.79547918023903   15.53800240344123    2.41447718029977
C          34.64288922396381   14.55805357998559    3.41486631045346
C          35.77001121480436   14.10292232230975    4.14000562573984
C          37.06409639746723   14.55840602112367    3.91261537619932
C          37.22156441379367   15.50705198959477    2.88237739273790
C          36.09177720493209   15.96825510907343    2.16293302097833
C          33.45026780880521   13.91811726540812    3.83152584419191
C          33.62636024381317   13.04433547174527    4.86373618437921
S          35.30526115621765   12.94768081170542    5.36235915117822
C          38.41791411889728   16.10674760460534    2.42033011818297
C          38.22936526952093   17.01305405495739    1.41843919646169
S          36.54056883134421   17.16314964721951    0.97536263573526
C          33.64589152671096   16.07921201341869    1.71727632696992
C          38.17520883983914   14.08121799218419    4.71131490677281
C          38.40504686696531   12.80985295776212    5.15673176204593
C          39.56427473536565   12.69542950207007    5.94906335117441
C          40.21658550113980   13.87550615784447    6.13045452397575
S          39.40762601354399   15.16327226338091    5.30043227192070
C          32.44441608933936   16.46021550144438    2.24447823745434
C          31.54527748476188   16.95800978898787    1.28033181978174
C          32.04838262653010   16.94971345537538    0.01627558825440
S          33.66878141247304   16.33443537787691   -0.00449643731483
C          39.21356160348410   17.79181989205545    0.74952561769465
S          40.89527369995889   17.66191705397300    1.17335116772813
C          41.33178530775326   18.85716702827800   -0.01777856145547
C          40.21689327208765   19.30929671202652   -0.68583425355391
C          39.02995785254992   18.71239417180470   -0.25650462186759
C          42.69524704757929   19.25437457566739   -0.20810351545664
C          43.74569813983435   18.71349203832195    0.51936023796777
C          45.07258940588984   19.09446621744843    0.33628861153422
C          45.46544423965615   20.04991805062501   -0.58881778308872
C          44.41970859265073   20.62657045090256   -1.34702602610757
C          43.05907786491269   20.23546929259590   -1.16073455371924
N          44.43532311449602   21.56149909683360   -2.30926147303102
N          43.18420804958927   21.69660488507326   -2.65025068645634
N          42.31904232610283   20.95280641869945   -2.01908933664886
C          46.83573591922502   20.43691061886600   -0.77457978152780
C          42.77224867151861   22.65477515600942   -3.63587573110373
C          42.48321134532458   24.00196725785098   -2.98025349785559
C          47.34449868705890   21.36285262472152   -1.64898143521401
C          48.74275250362381   21.49271718764295   -1.56850245908626
C          49.29446388479215   20.66981896316327   -0.63771069113694
S          48.11567835323705   19.71450500509863    0.16460933977849
C          41.48383302036692   14.13524226692822    6.86949738538199
C          31.40840909843079   17.42475141073301   -1.24241415478885
C          32.03504419526038   18.73663234184379   -1.71903487331762
C          42.64587201871142   14.38445766636174    5.90555943623568
H          -3.98565117095229    5.53780001817365    7.31105734815057
H          -4.14711787308012    6.75132533859193    9.61136763850092
H           2.91199259289438    7.22924874772970    6.41622079844401
H           0.65545111332028    7.34450861520631   10.53767462797207
H           2.27519225194205    9.12334008263341   11.49625221771720
H          -4.09954199599160    6.28552178571507    5.02905529682081
H          -5.19885471555092    4.59949245637992    3.38850862275570
H           5.03553385159932    5.37984178904972    1.09407348775842
H           2.61233123158111    5.22875588204899    2.05826715737952
H           7.51777363681238    6.92430364012306    4.78814911476629
H           9.89802367212403    7.26443380935952    4.46563682210794
H           7.25059751464453    4.89922057158859   -2.00695580270610
H           8.98266452333869    5.27261933085049   -2.26219465476463
H           6.69850857262111    7.31516622592956   -2.27158678981250
H           7.52829525330622    6.71010413082740   -3.71120797825951
H           8.40838447357870    7.68701589552689   -2.52945976850792
H          11.53799107129883    6.99589136323561    0.05767872135247
H          14.09264068136673    7.44413819647245    0.37005323162234
H           3.77419969301807   11.09317005646360   10.70853568304479
H           3.41969599297267   11.70113641451679    9.08387673486736
H          -4.72404688095405    2.29258541692116    2.28336355332957
H          -3.39924078098461    1.36452978901391    3.00396030705687
H          -3.09645924678585    3.38075247314308    0.72638753761714
H          -3.04927640386066    1.62152590691995    0.56204769888185
H          -1.78040846931267    2.46194405411601    1.46137123775666
H           5.43508755419012    9.49561880776550    9.73156659804202
H           5.83163643073064   11.16383481505346    9.30397239204374
H           5.06663575536469   10.10371207857042    8.11518727765379
H          14.76968027353771    7.45668163663268    5.13312930493342
H          21.61832276044116    9.08901151785010    3.85298739682380
H          18.03489400462584    9.94914093834447    0.90766170725551
H          19.59819397796574    9.97257762936806   -1.15704693399621
H          15.75687831378458    5.75900065397779    6.44106211603632
H          14.94980317405379    5.62771644500344    8.90340220649000
H          24.98124932163194    8.71298389535044    8.84269871448922
H          22.45226371247612    8.16385342778436    8.49010211981176
H          26.18058447417645   10.74393559410060    4.76602726916328
H          28.47431334281417   11.50256178925054    4.54084261406971
H          29.83761609938360    8.06071380110949   10.58760177926864
H          28.12256331852758    7.59329478829441   10.79905946053848
H          29.32400629353050   10.32038965920198   11.51199682533142
H          28.90332138690208    9.06023006138679   12.67885075257668
H          27.63345225136006    9.85134988320622   11.73690768123277
H          31.50614560405035   10.23478481970996    7.91962360195602
H          33.72984370627217   11.37156427370625    7.15345222550481
H          21.82679623936762    8.91715822759400   -1.98833236972889
H          22.42019158764778    7.54112555358346   -1.04471727502567
H          15.13806705375286    6.94663800810830   11.13907993387274
H          15.75819397973443    8.59943460084734   10.99829315808282
H          17.48051859221685    6.10786656787645   11.41081004296914
H          17.08872448358817    7.30741104011479   12.64855347935953
H          18.08675809298368    7.75911097076146   11.26085844236368
H          23.08866619327736   10.47170049728476   -0.48674960074222
H          24.17146558836321    9.29045066585699   -1.23210666733792
H          23.66929812958333    9.09236453063612    0.45046180158892
H          32.49119804196005   14.08531283352165    3.37560098891534
H          39.39555484613362   15.87723163058410    2.80314372434715
H          37.78344458111680   11.97263194161528    4.89544450743577
H          39.90013011306278   11.76570753235953    6.37353801332110
H          32.22662359385756   16.42480944060316    3.29713948660719
H          30.55667889180896   17.30886738036684    1.51950676732353
H          40.28092492282779   20.05120474641872   -1.45998343530566
H          38.05786788509899   18.93682160669849   -0.65963073948294
H          43.52211831933579   17.96058048493729    1.26159525784332
H          45.83244239170201   18.62315681407014    0.94312860036432
H          41.87495123367733   22.26405794689134   -4.11956904847848
H          43.58091649267057   22.74864211904251   -4.36321625897545
H          41.68944146213542   23.89776905637701   -2.24450416440857
H          42.17242572848398   24.72085849006052   -3.73293743157440
H          43.37527422522712   24.37602588589582   -2.48365890042626
H          46.71809005284459   21.92084474451327   -2.31963097065709
H          49.31625797569158   22.16938092303724   -2.17696506724821
H          50.32653568757416   20.56161808648339   -0.36872191946056
H          41.70614795325265   13.27109135906693    7.49928785410170
H          41.36189940869745   15.00829403570706    7.51554107722971
H          30.34106036451705   17.56931915637103   -1.06159750196706
H          31.52472914904189   16.66872730970492   -2.02301055148667
H          31.92192252098409   19.50703421669205   -0.95954894682630
H          31.55456655275285   19.07519015627534   -2.63367413477071
H          33.09609608640574   18.59635922299767   -1.91244063561868
H          42.79134318265658   13.52262590741476    5.25803920249820
H          43.56425409403776   14.56344545620899    6.45911021306034
H          42.43892213619108   15.25260326590735    5.28378656063431
