224
 SCF done       -420.999133871361          0.000490052914
C           4.63784237515608   -3.39080244642835   -4.19360032568766
C           5.36377760201542   -4.30763689772672   -4.97612394180659
C           6.77818748174406   -4.26746955631528   -4.99083293991104
C           7.52391902709044   -3.34251690101608   -4.26658952320125
C           6.80002857915843   -2.45374478375372   -3.44950043047610
C           5.38468162267446   -2.49429641794946   -3.43459557995187
C           4.86352679763774   -5.35580939326069   -5.80371806539886
C           5.83935785521435   -6.04682559104253   -6.42615557713763
S           7.43066118086416   -5.48414108093003   -6.05432357227039
C           7.30953041525517   -1.46303554739517   -2.57451005410730
C           6.34385585015845   -0.73702062609887   -1.94263569971446
S           4.73179400540314   -1.26311880963124   -2.38648566775361
C           3.18814235338891   -3.35072646630591   -4.17339634884237
C           8.96887982051357   -3.26725481445155   -4.34396854525016
C           9.74697081585355   -2.14574475044220   -4.40378204947073
C          11.12499623964387   -2.44403439506929   -4.45160313483437
C          11.41643742336522   -3.77663569448371   -4.42078274308384
S           9.95630379776566   -4.70110570825000   -4.34737235489564
C           2.37300114114793   -3.12758380409079   -3.10054987360971
C           0.75909246401911   -3.27138802716460   -4.78146900854520
S           2.24638055893140   -3.50679217175779   -5.63131590016493
C           6.52913642866088    0.33250151057778   -1.02225394525184
S           8.12537269915288    0.86884701599553   -0.58955588694433
C           7.46853831662145    2.09466060643230    0.45563904215470
C           6.08941708736874    2.06324741864881    0.45042301694919
C           5.56311010952064    1.07413662293326   -0.37956452029441
C           8.36116722465725    2.95882700413375    1.16749289441891
C           7.98346662899214    4.00177317765012    2.00398886573925
C           8.89041449753118    4.82490067589385    2.68736344633061
C          10.27261751390075    4.69479490594054    2.60791119031966
C          10.68470839786321    3.64590122793064    1.75241060432890
C           9.76415068758274    2.80939637613523    1.06251273073651
N          11.91636482270034    3.23411890350770    1.42529180021408
N          11.72122215468892    2.23569734224073    0.61083692191081
N          10.48052995956721    1.92870553348462    0.35422324308178
C          11.22275907225632    5.50047478134970    3.31366976589283
C          12.81586580823675    1.51291423915682    0.02654385472259
C          12.67531488809010    1.46891257398062   -1.48922229527687
C          10.99686820962528    6.54797231211330    4.18358368415215
C          12.16516192722929    7.08429096238093    4.71592996503805
C          13.31028302127027    6.45917691663967    4.26363046852817
S          12.92611066397802    5.18625196014699    3.14709055845841
C          12.74431630418224   -4.44364553953411   -4.50917726737496
C          -0.55374379905744   -3.34000296889675   -5.48041726184554
C          -1.06817391709459   -4.78058295877289   -5.54056064192890
C          13.04917158109785   -4.85965796544773   -5.95043932418674
F           6.67883561702673    4.27466910741200    2.20163665926464
F           8.33968175692280    5.78365701405500    3.45813167738424
C           1.00668064109869   -3.09626794407985   -3.45111119378031
Cl         -0.23890841814827   -2.84607639475596   -2.28903639772600
Cl         12.33063833016129   -1.21534656444503   -4.52884427813682
C          17.09337799862786    8.51660464697590    6.78571735435210
C          16.40884000303116    7.75374160462536    5.82043749862488
C          17.12903073576160    6.93381988903290    4.91713821126185
C          18.51776433170399    6.82580207227713    4.92467557457954
C          19.20631857443433    7.58742562270461    5.89309071666581
C          18.47803317459272    8.40150170493659    6.79610440347946
C          15.01115027442749    7.63522571542278    5.64766911765085
C          14.64504755105258    6.77323307673262    4.65320381081148
S          16.03944712626823    6.05871980482111    3.87100173015103
C          20.60456173759966    7.71278740164762    6.09050965938462
C          20.94576024737185    8.56616102611484    7.09934442577741
S          19.53753983297920    9.27254074802124    7.86626507552638
C          16.41342605781609    9.39077422984019    7.72046638692032
C          19.20344000167770    5.96312658641080    3.98409171944344
C          18.88749714808982    5.73203940911743    2.67542189734374
C          19.75288106079164    4.80175313171943    2.06095497853314
C          20.71904973660399    4.29844016748548    2.88181838396200
S          20.57317917740428    4.99629071296112    4.45841381980173
C          16.70757999007197    9.59666851548742    9.03796638830316
C          14.95691920956506   11.12236148434044    8.79679083253928
S          15.10099555622074   10.42290478543206    7.22124228805557
C          22.23826823990869    8.91565962267511    7.58032811045912
S          23.69432593158555    8.20986516419953    6.94451292785571
C          24.66894596344057    9.13825637211296    8.04976746540103
C          23.88159201105024    9.94040676501509    8.84991356759755
C          22.52035046206106    9.81381180081606    8.58696241482770
C          26.09404512812308    9.00174539270018    8.04000027232872
C          26.97278846629225    9.69450753526209    8.86269688552788
C          28.36308804752309    9.52876349780009    8.82420761336553
C          29.03089045329246    8.66550350009411    7.96320527837699
C          28.16169132418693    7.94456671680322    7.10527907034565
C          26.74637902715212    8.11054649323975    7.15505604339040
N          28.41408772803234    7.03096820455249    6.15619161942079
N          27.23840892567112    6.69723741198446    5.70053862769088
N          26.21334282185187    7.29155830511008    6.24244124715061
C          30.45343117978788    8.50938428359177    7.94067830859633
C          27.07583729058740    5.72831776703666    4.65328362247794
C          26.32862326481856    6.34113136961311    3.47545011647015
C          31.19604393340363    7.71490480176229    7.09044533495500
C          32.56854966525292    7.78337954418051    7.32688431429392
C          32.90011825020379    8.62738032797031    8.36528343991732
S          31.48607073768979    9.35374974019673    9.05723506448223
C          21.81332494609384    3.33835938894533    2.56914534296351
C          13.90367033529815   12.12979728337847    9.09914380285340
C          12.54850975595087   11.45611081170130    9.32802776969085
C          23.17951939201516    4.02678340125569    2.59639676927092
F          26.51315136508041   10.58405672498925    9.76340327586161
F          29.06930090128290   10.27692839735265    9.69540084676770
C          15.87455723204505   10.56464389006343    9.63838193008540
Cl         16.02134814571408   11.00310993684556   11.29683230195724
Cl         19.58608440985000    4.34748270660402    0.40806189084749
C          36.41977134086364   10.65249468076946   11.27489856807931
C          35.82307895792634    9.87082952432675   10.26560401897153
C          36.62878981797310    9.12611346988162    9.36853349747772
C          38.01957981920245    9.13228532105966    9.40657580027984
C          38.61718480272322    9.90870893785569   10.42126960245038
C          37.80943043243626   10.64725471790647   11.32092425048887
C          34.44717179488330    9.75163115683883    9.96061386418173
C          34.18298125386378    8.94098881260379    8.89521030660121
S          35.64872404138126    8.27615709321528    8.20154873944017
C          39.99210159200262   10.03203190668698   10.73194871226822
C          40.24764028389450   10.83278646876937   11.80693529028930
S          38.77927464271874   11.48436272023784   12.50306297264093
C          35.64496399655928   11.41984402359311   12.22911646798223
C          38.80454449231976    8.39341736511263    8.43860652297367
C          38.54060455255505    7.16788310319166    7.89623478531291
C          39.50861380570451    6.77032337102076    6.94923034753683
C          40.50181385134103    7.68125487042634    6.73798667759726
S          40.25482994985720    9.06569154265722    7.74396709289301
C          35.92685135553843   12.66092710585819   12.72585976321376
C          33.98347034467707   12.19793461492499   13.93406202970556
S          34.20334309530108   10.78003474295813   12.97010784540891
C          41.52071129390976   11.16015424665248   12.35074797224712
S          42.97858988994145   10.60358702321831   11.58466389032674
C          43.95513238262842   11.39195169590222   12.78887779850312
C          43.16852393292827   12.04220676866758   13.71649232198021
C          41.80199803379979   11.91433241048007   13.46808125260912
C          45.38253328025147   11.30588802096354   12.69824711676059
C          46.28881385739899   11.84131436335685   13.60221939354105
C          47.68081433380802   11.73891309141029   13.45560681638563
C          48.31397272864622   11.10175221221841   12.39693494496288
C          47.41409647757437   10.54255370574080   11.45496507134899
C          46.00173710624536   10.64122825932318   11.61332482816182
N          47.63249895352109    9.86177370614285   10.31951171268253
N          46.44128792348408    9.58945590561051    9.86527279814495
N          45.43566820731301   10.01690127731534   10.57481805414158
C          49.73714609829498   11.00438927245946   12.24541413949828
C          46.24218908852193    8.88768093201992    8.62916907063003
C          45.62970072129627    9.81804003536302    7.58795903144832
C          50.41581113558057   10.40974819147859   11.20688817141703
C          51.80954665737040   10.47855678207037   11.35023510287667
C          52.18750007005055   11.12019105046979   12.49087851517855
S          50.85111334476986   11.65695348570211   13.41430598253905
C          41.70414990525475    7.57427237539290    5.86634353499177
C          32.85964369956397   12.30485731469197   14.90408625145513
C          33.19639176954581   11.59449155527215   16.21742153774416
C          42.92852171933318    7.14448587235353    6.67852225884902
F          45.85434247649330   12.50150187286918   14.69267992761133
F          48.42191939837845   12.31261625026416   14.42429879215672
C          34.98402675955815   13.09132708737926   13.68275153037410
Cl         35.09322114341384   14.62501264603460   14.45721035557404
Cl         39.43051413409830    5.25712299984814    6.13092559112506
H           3.81937532440333   -5.58139280237793   -5.91364201361674
H           5.73367666499067   -6.87802025372939   -7.09537058064666
H           8.35629656021566   -1.30251808507269   -2.39321761338373
H           9.35930825808885   -1.14538362734200   -4.45834418709366
H           2.72043810679988   -3.02367708532949   -2.08969110147412
H           5.47839612577133    2.73192710623159    1.02690351508055
H           4.51042646747760    0.89837491807472   -0.51472098943875
H          12.81521757310089    0.49567691344880    0.43015374506612
H          13.72750881439043    2.02606056082361    0.33719250895090
H          11.72266273964655    1.01948198974856   -1.75660035540316
H          13.47792103516667    0.87665541130909   -1.91846838631272
H          12.71933420856695    2.47179871860964   -1.90649943910547
H          10.01915587338175    6.91632701455217    4.42990317222479
H          12.17635603648705    7.90895478527615    5.40444257375150
H          12.75170972505347   -5.32748680341295   -3.86845065414058
H          13.51130822309860   -3.75090926864627   -4.15681662073582
H          -0.44927786926293   -2.94832446301894   -6.49393694134496
H          -1.27160742723748   -2.72014194798092   -4.93910617830198
H          -0.36505751265502   -5.41098168461243   -6.08033239468195
H          -2.02830506663766   -4.81467078649306   -6.04861331562264
H          -1.19112058608482   -5.17829728473050   -4.53614731179592
H          12.29071824873048   -5.55081051531083   -6.31108857793858
H          14.01962883604865   -5.34611873897375   -6.00311399494321
H          13.06068290328890   -3.98775834517373   -6.60014246125605
H          14.29750282104852    8.15144906513585    6.26016637919452
H          21.34822907201674    7.20509938594577    5.50474111844360
H          18.09403062974944    6.22867814596923    2.14910687983478
H          17.46289462616379    9.05771832283801    9.57866676788873
H          24.27320244229144   10.59713038510163    9.60311217571197
H          21.75400056790312   10.35759002913337    9.11061230227108
H          26.51091848426863    4.88045454123667    5.05198383184543
H          28.07679359971055    5.39919324335040    4.37033768253851
H          25.36835504105961    6.72309257507183    3.81168870351106
H          26.16329835366957    5.58867989910738    2.71020636394144
H          26.90037019521673    7.15975418996574    3.04551982230161
H          30.73593697906907    7.11249226970084    6.32940715563683
H          33.30745254378390    7.23771603385078    6.76688079272517
H          21.63054844106962    2.91465449457922    1.58006785852954
H          21.80641901172951    2.52522699283168    3.29936374293438
H          13.82187964169854   12.83451861100595    8.26895821587537
H          14.19530645923546   12.68035938992154    9.99549500021789
H          12.24365665539038   10.90972552653094    8.43827129745075
H          11.79208476184617   12.20273053754664    9.55458139430701
H          12.60986625721549   10.75870127580196   10.16004133535312
H          23.21111734310750    4.83100192914291    1.86495812830073
H          23.96365492818042    3.31111400387199    2.36244997471473
H          23.36903674702893    4.44592199873211    3.58210768381820
H          33.66579707817802   10.25613565803236   10.49846210835172
H          40.78209617338428    9.53526997123397   10.20020839222296
H          37.71175168176904    6.54771939956098    8.18196026492631
H          36.75165166200162   13.26785166171529   12.40218875346440
H          43.56596014543292   12.59594344817884   14.54623750854685
H          41.03469038370460   12.35424563367172   14.08042950179055
H          45.57382744997611    8.04327886469383    8.81722893776609
H          47.21972526101295    8.52263716266187    8.31080127594211
H          44.67768120127146   10.19901798793584    7.94895962524362
H          45.46749224007971    9.27848173488277    6.65976439301931
H          46.29237111998084   10.65774577043604    7.39337640647468
H          49.90843910680456    9.94676990243102   10.38169933284362
H          52.50460884997586   10.06970054825626   10.63890143776781
H          53.18114414238239   11.31061052131237   12.84558550001437
H          41.90205131775117    8.54060679541848    5.39765804049225
H          41.50642351757481    6.84069831157805    5.08269654158484
H          31.96098454746238   11.86063646275205   14.47144380778229
H          32.66639072412288   13.36161353377870   15.09916172888014
H          33.38703366700387   10.53881937449276   16.03754961116028
H          32.36819410087058   11.68577278999575   16.91519569591970
H          34.08229431691300   12.03537902949844   16.66825911153147
H          43.12339221393768    7.86473157964175    7.46982183569105
H          43.80238378275975    7.08073705694603    6.03493908321061
H          42.75719522023535    6.16998880623442    7.12935758973927
