242
 SCF done       -464.737939890373          0.000275558261
C          -2.27550747055120   11.69982316526366   -2.78714674954422
C          -3.23320658696641   12.43257618756887   -3.53341521743341
C          -4.54238238323536   12.01503519395923   -3.75406627797470
C          -4.85344208613933   10.77247935870005   -3.18328143947014
C          -3.89648292244886   10.04486664341472   -2.42653592229153
C          -2.58775858564294   10.45913016444970   -2.21237751505007
C          -1.11243453850379   12.53063401676125   -2.76631720372740
C          -1.43039936976472   13.64051372270957   -3.47029863237289
O          -2.69431302128286   13.60539960267953   -3.94496704611346
C          -6.01128588374023    9.94803267142418   -3.20666090019051
C          -5.70931659867288    8.82853018308277   -2.47955740345732
O          -4.43445839533975    8.87878286688688   -1.99745409484178
C          -5.51116944125603   12.82410945651394   -4.49406669703171
C          -1.62363608071403    9.64696322146021   -1.46869299526302
C          -6.51087018154195    7.69340147203911   -2.15575958872843
C          -6.20081413992336    6.66392693996980   -1.29325647689867
C          -7.22287262070982    5.72307733119723   -1.18041830068677
C          -8.32110967972283    6.01153099128888   -1.96426614191697
S          -8.07931705854798    7.48717997304240   -2.85488749897613
C          -9.52718526958337    5.24537994967215   -2.06642102989334
C         -10.53487784973486    5.49775640667125   -2.98753918085413
C         -11.71158964887823    4.74371793829863   -3.08560193978385
C         -12.01840520899525    3.67542881176629   -2.25363620602422
C         -11.01176489119878    3.39513741710671   -1.29555118153969
C          -9.79994596855157    4.14536501214012   -1.21431427013011
F         -10.40005820359247    6.51712589847036   -3.85742911698332
F         -12.58254751984288    5.11070092860674   -4.04510240804445
N         -10.95241382448297    2.44521471063269   -0.35218897936858
N          -9.79947449471119    2.62995428323684    0.22584082173432
N          -9.07006190266312    3.61054521005055   -0.22588379530319
C          -9.37613444514982    1.82438299893892    1.33558710696702
C          -9.78007292502759    2.47921555052613    2.65312773987928
C         -13.23135956635092    2.91734906567630   -2.33260416857734
C         -13.67809941406297    1.97483867641957   -1.42917505226051
C         -14.90477150843233    1.41232100583978   -1.77785594771681
C         -15.40484792924908    1.90683005219931   -2.96336159248783
S         -14.35598774853065    3.10072830619136   -3.64739777126123
C          -0.30468565646411    9.53591080955358   -1.90288854424738
C           0.58234709553526    8.75124263737266   -1.19517480464544
C           0.23303562261485    8.04190889141876   -0.05127976095058
C          -1.09295564555209    8.17441151958882    0.34586886070481
C          -2.01500563718485    8.94620734416575   -0.33058888653096
C          -5.12964341596771   13.51927788708916   -5.63883171694413
C          -6.05892842047375   14.28536821232870   -6.31209133388075
C          -7.38054480827192   14.42200128652872   -5.90131723076573
C          -7.71944888934674   13.71940217548092   -4.75016378179557
C          -6.82654740549748   12.93564309200813   -4.04883918675736
F          -1.50440937373111    7.50945114999259    1.44698171974667
F           1.85217248085765    8.66099305204155   -1.64545498055180
C           1.22862496364973    7.22760244806400    0.72007644979137
C           1.95635587825666    8.10118041774235    1.74474748993663
F          -8.98252612490411   13.81733952933037   -4.28462782937954
F          -5.66045416942610   14.94045217295099   -7.42267917301341
C          -8.38118444256489   15.23580888998218   -6.66647046592787
C          -9.10026713827567   14.36715529948553   -7.70154048520096
C         -18.31234936411814    1.20647264045849   -5.04153721911687
C         -18.53412409084121    0.51720498557074   -3.81898475544366
C         -19.65663462518721   -0.25533805738376   -3.54683784029358
C         -20.60527604658782   -0.27871859310446   -4.58296440479774
C         -20.37861987119403    0.40653761350042   -5.80694943769527
C         -19.24047305518038    1.14887633767287   -6.09309330007032
C         -17.06940287161740    1.87144967803349   -4.87303621991283
C         -16.61203439418590    1.53708798175935   -3.62650262655800
O         -17.48623170915822    0.71133098061151   -2.98292333368451
C         -21.88615115051669   -0.87613695279052   -4.72661814039281
C         -22.32637423752979   -0.56346595001472   -5.98519063532089
O         -21.41921775727027    0.20700663828281   -6.64886436992698
C         -19.81515880625366   -0.99509172673935   -2.29427151403337
C         -19.02981593376295    1.79632899653557   -7.38859143821029
C         -23.51763881545382   -0.93928306736354   -6.67451879403001
C         -23.79014381725875   -0.75797758500209   -8.01271543392343
C         -25.02416726831822   -1.28438121036040   -8.39340321516707
C         -25.71695662610060   -1.85866195155421   -7.34908372507642
S         -24.82126627345267   -1.74301297114129   -5.86195378681129
C         -27.00627045766403   -2.48616399344364   -7.35569812002014
C         -27.69050065121026   -2.89671763371727   -8.49121687898741
C         -28.95385960584653   -3.50435715118189   -8.45504455078938
C         -29.67601548323600   -3.73837447084307   -7.29167210261448
C         -29.00271111685707   -3.32988830646268   -6.11344287141190
C         -27.70440725965879   -2.74320169322793   -6.15267595534220
F         -27.14138924380810   -2.73559932289715   -9.70966469975441
F         -29.47940827020661   -3.86113874161938   -9.64303925140103
N         -29.35726401292797   -3.40937912656043   -4.82265678125428
N         -28.34246986606825   -2.91103635200561   -4.17314296450265
N         -27.33686446374634   -2.49696192313432   -4.89000752976967
C         -28.34825959409409   -2.78264660736629   -2.74405081641714
C         -28.74351885492250   -1.36559460623101   -2.33996367741533
C         -30.98012663627049   -4.33079461743448   -7.26150152801015
C         -31.83553776010758   -4.38827656142900   -6.18057515560436
C         -33.04558862219761   -5.01888871452854   -6.46631345102925
C         -33.12182787642358   -5.47067012803039   -7.76619924309173
S         -31.68974853909985   -5.08710068763516   -8.65793795074716
C         -20.08605621972123    2.41794932455145   -8.05032596725125
C         -19.86621514641849    3.01592407846397   -9.27408980765127
C         -18.62923623369000    3.02748590733400   -9.90945988458644
C         -17.60343315232205    2.38883373908186   -9.22125507276585
C         -17.77542862964481    1.78158905255162   -7.99429333204480
C         -19.39630967894452   -0.44391371686238   -1.08528340532115
C         -19.54309943473514   -1.16581827833648    0.08113745802220
C         -20.08927125596925   -2.44382624061812    0.12747742011600
C         -20.49035212959402   -2.96059062971558   -1.09950920287513
C         -20.36318901679447   -2.27625361167367   -2.29050805480338
F         -16.37788250179008    2.34835772434895   -9.78494041235706
F         -20.90938452909704    3.61473439089900   -9.88663810752343
C         -18.40550534483596    3.71666689517290  -11.22233050286233
C         -17.98354443555161    5.17088065547733  -10.99805745350172
F         -21.02281103416163   -4.20157967306046   -1.13152175282680
F         -19.12877811058868   -0.60199196672879    1.23621895821687
C         -20.26992386903786   -3.19742347354612    1.41168164993376
C         -21.65288964647575   -2.92225135482120    2.00687510914395
C         -35.54245938222444   -7.36387384799107   -9.72165333338758
C         -36.21306217970726   -6.99734774299670   -8.52382316351358
C         -37.51573369486884   -7.36525195529176   -8.20905416663748
C         -38.14661884956794   -8.14772014121139   -9.19098478372197
C         -37.46779729120315   -8.52961525219918  -10.37965923726681
C         -36.16909513166635   -8.15468450663263  -10.69813754662058
C         -34.23833371483308   -6.81609472215787   -9.59916021295916
C         -34.19302503592212   -6.17759231971288   -8.38884601399597
O         -35.38215621203923   -6.28074212992036   -7.72943455467306
C         -39.45381402911369   -8.68572012572374   -9.32449497819607
C         -39.48703177466194   -9.34669440516814  -10.52392761797981
O         -38.28981502602168   -9.26084331561855  -11.16848443783073
C         -38.16538434024303   -6.96708776785733   -6.96039447217006
C         -35.52196925221577   -8.55712738535225  -11.94726792944632
C         -40.54174819000622  -10.08030350026314  -11.14201278835656
C         -40.51532899243489  -10.72238645417814  -12.36031264448090
C         -41.71918881471014  -11.35630826474248  -12.66799596070531
C         -42.67969168749228  -11.21004673214360  -11.68928665725638
S         -42.07770572735920  -10.26471577093944  -10.35788355719434
C         -44.02095232956100  -11.71350947563912  -11.64210020168645
C         -44.65221358642904  -12.44368139719711  -12.63887890563140
C         -45.97094834257677  -12.91350768046909  -12.53697616486244
C         -46.79516326794116  -12.70735551881129  -11.43877159917744
C         -46.17845604866480  -11.96264098765616  -10.40203229472395
C         -44.83974692688084  -11.48819628125432  -10.51068611571733
F         -44.00419495565725  -12.73864270357189  -13.78179005472318
F         -46.43584148114653  -13.60741321874412  -13.59476270560417
N         -46.63583143043895  -11.56728088751176   -9.20408774773283
N         -45.63891789701864  -10.92088204762724   -8.66839529584018
N         -44.55129574090097  -10.83428763712318   -9.38026050235136
C         -45.73898721907646  -10.30768830327328   -7.37467097149828
C         -45.77174162183423   -8.78921136042286   -7.50940976263004
C         -48.14216853417788  -13.18942127068705  -11.33500558606168
C         -48.99832173861585  -13.01592265427276  -10.27199006324245
C         -50.25262192595955  -13.61042834463683  -10.47397259320159
C         -50.34913917012344  -14.23125118215434  -11.68271202660371
S         -48.91142584672158  -14.10484370191640  -12.60128549308589
C         -34.71544379420172   -7.66910952366848  -12.65507020091868
C         -34.11868043432764   -8.07836337739004  -13.83028691442899
C         -34.27902148599810   -9.35090784083898  -14.36741730324209
C         -35.09699411212489  -10.20460634606065  -13.63509335121685
C         -35.71617558401976   -9.83862142487901  -12.45818463036986
C         -37.94386877264098   -5.70144985971407   -6.42082921983740
C         -38.57299204281741   -5.33953844652612   -5.24806860102504
C         -39.43224083226678   -6.18011241196946   -4.54836425437211
C         -39.61901017931786   -7.43678722427226   -5.11263634667532
C         -39.00921375738914   -7.84368445183293   -6.28137296503218
F         -35.30049071137235  -11.45554035908179  -14.09999281482694
F         -33.34870997032549   -7.19177831044875  -14.49496856178348
C         -33.58516339586929   -9.78744200056255  -15.62315147711974
C         -32.23185091362715  -10.42263889448365  -15.29414916976021
F         -40.43479620941456   -8.31109838141926   -4.48276652464374
F         -38.34047436309593   -4.10462173463142   -4.75372734759835
C         -40.14002899924890   -5.74411131932388   -3.29992476223897
C         -41.46574087809076   -5.06188551863627   -3.64638926128686
H          -0.18376600812200   12.33178458246775   -2.27390853159835
H          -0.85699889834352   14.51615254461817   -3.70572314862930
H          -6.93908726545369   10.13675287155013   -3.70574063128848
H          -5.26525947920260    6.61198947552245   -0.76655586759879
H          -7.18439922043738    4.85198778910138   -0.55374013483416
H          -8.29079627216687    1.72386604576046    1.27709917637467
H          -9.85131923684027    0.84772048195091    1.22950531391445
H          -9.32321883327929    3.46200146273484    2.73828606457533
H          -9.44975782380480    1.86517699888392    3.48576837517622
H         -10.86063724762840    2.58751676920969    2.70418584458587
H         -13.11673934029539    1.71830809033456   -0.55050348004873
H         -15.41771197636988    0.66421261167384   -1.20100038021989
H           0.02797349773501   10.03010452990681   -2.80092936474102
H          -3.02623052340524    9.00542339608139    0.03646867194071
H          -4.12147190242890   13.46025539457945   -6.01418066810241
H          -7.15173935490063   12.44354643987201   -3.14692710703527
H           1.95662772293700    6.79815157347390    0.02971215366439
H           0.71205811453640    6.41671983954483    1.23577402779797
H           2.48746640262119    8.90842626940219    1.24549446365094
H           2.67534206269488    7.50436046699036    2.29984680552027
H           1.24690944727081    8.53293283240901    2.44720349090264
H          -7.86964757573766   16.05561229752015   -7.17321522799833
H          -9.11354783458913   15.65285836828921   -5.97316226348831
H          -8.38641150207925   13.94966452851757   -8.40812355346860
H          -9.82361079056866   14.96435452555246   -8.25061175832202
H          -9.62488276865910   13.54972271757073   -7.21216120511863
H         -16.57640578283419    2.52425570988842   -5.56314691095995
H         -22.42858707475303   -1.44982859138607   -4.00424523967333
H         -23.10591659474152   -0.27029386897148   -8.68309359831950
H         -25.40058085238328   -1.23731647301695   -9.39806958823447
H         -27.34231459761764   -3.01083515839986   -2.38621480416420
H         -29.06186183338282   -3.51113991192060   -2.35597054895902
H         -28.04105480614097   -0.65019948385771   -2.75997690069325
H         -28.73320984524820   -1.27479025823627   -1.25780944772204
H         -29.74229401471446   -1.13352968214405   -2.70144041943369
H         -31.57170930948456   -3.97786940165267   -5.22389996994254
H         -33.84289672282123   -5.15644376100620   -5.75859975182844
H         -21.07173178806462    2.44967870346874   -7.61643081551537
H         -16.94142928427671    1.27776844703315   -7.53400052511990
H         -18.96648811272336    0.54312644459455   -1.04453295966086
H         -20.66250999429107   -2.75531539240264   -3.20807104142778
H         -19.32697354540658    3.69224993900021  -11.80614153372288
H         -17.62368694318789    3.19452023833646  -11.77636274642279
H         -18.75621568173439    5.71057813574518  -10.45503460082850
H         -17.82220742697672    5.66333384672583  -11.95341565745839
H         -17.06019386199133    5.21389478703106  -10.42486055252923
H         -19.50148301946231   -2.89051956024322    2.12277531779889
H         -20.16524612839980   -4.26680996775531    1.22051495300787
H         -21.77310542893039   -1.86082760033223    2.21210814645687
H         -21.77438543032098   -3.47171829381217    2.93677779557349
H         -22.43206152478110   -3.23406129309236    1.31493903643254
H         -33.42405690800842   -6.90018164284493  -10.28848255719381
H         -40.27864883916843   -8.58724441745931   -8.65003305036529
H         -39.64953595846755  -10.72521085823037  -12.99748138779976
H         -41.87856784938712  -11.90592370103036  -13.57660479598079
H         -44.86993091306905  -10.61177468208027   -6.78610868050730
H         -46.65294679348081  -10.68436884101738   -6.91325157508768
H         -44.87439641125427   -8.44631809769607   -8.01803406022436
H         -45.81660010106196   -8.33288401214473   -6.52498317234294
H         -46.64233342362951   -8.47649695704016   -8.08085007363296
H         -48.71271028000325  -12.47718625384215   -9.38828556974708
H         -51.05111240044734  -13.58002105382440   -9.75440717391201
H         -51.18781693805764  -14.76014053123266  -12.09053112437946
H         -34.57086950255191   -6.65651039629443  -12.31604603870485
H         -36.33367535654837  -10.55452879579162  -11.94144685530341
H         -37.29653796579144   -4.99411206716690   -6.91202236224325
H         -39.17381239027210   -8.84633023329730   -6.63972490730349
H         -33.43206856085737   -8.92346102707803  -16.27163496421276
H         -34.20819644936965  -10.51466981912871  -16.14646340833713
H         -31.59262166169183   -9.70867988541782  -14.77966098775800
H         -31.73564663746325  -10.73656948514402  -16.20876715877137
H         -32.36655174736652  -11.29304689666802  -14.65583560099722
H         -39.50708199712289   -5.04536200029085   -2.75048474481831
H         -40.33304131727458   -6.61388056734738   -2.66993985042520
H         -41.28996584889848   -4.18375165505216   -4.26362609364602
H         -41.97411351700075   -4.75092591702100   -2.73738927716952
H         -42.11342434770827   -5.74585441214685   -4.19049457311683
