224
 SCF done       -426.984657476043          0.000909198407
C          -3.27971061867494   -5.83914844564764   -0.36498872908708
C          -2.29189715784979   -5.28304245014409    0.48571485842824
C          -1.64057192634927   -4.05907878224475    0.27864785339787
C          -2.01793111830210   -3.41537424201242   -0.91714846859474
C          -3.00222882126142   -3.98172552031358   -1.76211217123414
C          -3.68771213382442   -5.17620805289526   -1.53765407390734
C          -3.68875353064692   -7.04197471618312    0.28508637327038
C          -2.95989578527245   -7.13116395606133    1.41822167084694
O          -2.11385948370377   -6.08742764356999    1.55992451763360
C          -1.65817058841513   -2.18607435683310   -1.54424028116476
C          -2.41866127235694   -2.08495407994957   -2.67772677703501
O          -3.22445817775320   -3.17374377383955   -2.81695410638131
C          -0.73372666875593   -3.51362339338047    1.25165455477502
C          -0.24191955653736   -4.12205754913417    2.37814078445625
C           0.57034699973140   -3.26443363282323    3.13858366692110
C           0.73128313307642   -2.00622076601918    2.63816924135024
S          -0.15941891816727   -1.86689515262686    1.16224521002419
F           1.15011686893480   -3.66573528543047    4.28706659647190
C           1.50886763098557   -0.87010387155247    3.20591411242986
C           0.60151408792162    0.30416452767632    3.57539638892890
C          -4.72949135304778   -5.60733545479941   -2.43106068830339
C          -5.38535989830482   -6.80991384432367   -2.51522946891304
C          -6.34424413927257   -6.81830579237517   -3.53921991078158
C          -6.45416413330639   -5.65880350295222   -4.25328995089977
S          -5.33632574632750   -4.50189475183152   -3.63731336974798
F          -7.09541620593064   -7.90699042412738   -3.80726848494364
C          -7.33986610368264   -5.37639407549406   -5.41947239967728
C          -6.93206679482159   -4.10796893224962   -6.15621183449615
C          -2.64283185609886   -1.04566225387816   -3.63400393366752
C          -2.28194808559506    0.28147030093651   -3.64444989358964
C          -2.97888099164529    1.03238019767945   -4.60425914995012
C          -3.84271187160454    0.28017122309232   -5.35670984903803
S          -3.77358377381483   -1.40145820165927   -4.89676411331125
C          -5.04619646715330    0.63598370749289   -6.08253756910134
C          -5.59846005929450   -0.17972482246530   -7.06117114853688
C          -6.97880484920976   -0.41418504494862   -7.16820666467243
C          -7.88590709811861    0.11415716166025   -6.25581309463594
C          -7.38197061798282    1.21245107991993   -5.52269522364396
C          -5.98077569097355    1.49277194888561   -5.45453865781409
F          -4.79016114016054   -0.95835513215585   -7.80427828206481
F          -7.37451424843923   -1.39135783386791   -8.00358883477667
N          -7.99413243631521    2.05819118427770   -4.68868844279472
N          -7.03135644837990    2.78105747537545   -4.19088143824347
N          -5.81966053534410    2.49032988109508   -4.58031406813038
C          -7.29557419336352    3.88399518759999   -3.31186986661405
C          -7.53374855451319    5.15838621315342   -4.11636562997891
C          -8.91478763091733   -0.74279244160414   -5.70100702432893
C          -9.70372617741230   -1.71995633695016   -6.24354688721670
C         -10.05932811873836   -2.72276105483985   -5.32393716118817
C          -9.51031743242391   -2.53560593206787   -4.07763278443997
S          -8.67099723864788   -1.01844777877241   -3.98784144963557
C          -8.27906351874378   -4.64595255126785   -1.40096136477708
C          -9.17778230950922   -5.46576890958024   -2.13093366279424
C          -9.35411352910294   -6.83690384078069   -1.92848234375581
C          -8.55039079509115   -7.35933010115231   -0.89303169737985
C          -7.65589121377248   -6.53375190948338   -0.16449065215333
C          -7.46098333260215   -5.16896647597605   -0.37977026200351
C          -8.38590129095612   -3.36250843598968   -1.99135534990557
C          -9.28125711713697   -3.47149674021986   -3.02204600569050
O          -9.78247666574074   -4.73444693438361   -3.10181466127834
C          -8.36740056755194   -8.66428509898855   -0.36092598516088
C          -7.40846585680389   -8.56158503955188    0.61150351787436
O          -6.97928539454203   -7.27482761182769    0.73751675017890
C         -10.23671671125566   -7.61585858205257   -2.75426799021887
C         -11.16585185262744   -7.15113117457504   -3.65146994736555
C         -11.83400492753688   -8.19247938234495   -4.31441623329973
C         -11.44695112944453   -9.45405682427136   -3.96645496107347
S         -10.21317513240521   -9.35800403324349   -2.76243343907844
F         -12.78862695549668   -7.95709143219064   -5.23591545927365
C         -11.97953070567697  -10.75539566471810   -4.45668444324171
C         -12.79519897277702  -11.46639073062290   -3.37522816276843
C          -6.46505599977461   -4.42856867812450    0.35090381487697
C          -5.78606228102981   -4.82948405426581    1.47361946754316
C          -4.84324905712158   -3.87715879430444    1.89425034698001
C          -4.76152993608549   -2.74924055776298    1.13267675963140
S          -5.90201482274202   -2.85777966276769   -0.16187798989583
F          -4.06262090694269   -4.07647154380016    2.97691900540940
C          -3.90779445294865   -1.54770615174820    1.34470259819598
C          -4.73723764534409   -0.34591081558065    1.80020020758604
C          -6.78750664499096   -9.52672496737073    1.45552151065961
C          -6.96618396791617  -10.89147198990436    1.50517634888627
C          -6.13935149774544  -11.51239539163983    2.44143663221733
C          -5.31745999340326  -10.63241036158226    3.11648369934865
S          -5.58512672039229   -8.99825424772958    2.58934890767406
C          -4.33464999942259  -10.88457847679449    4.12812194273663
C          -4.05222277008181  -12.12377707133485    4.68971793738922
C          -3.09092631451937  -12.32882474786893    5.69039697730738
C          -2.31796910592616  -11.31498700624365    6.24321539930044
C          -2.58172503682257  -10.04168597116972    5.68600129269982
C          -3.54498725792587   -9.83713024303363    4.66022367048765
F          -4.72344701005496  -13.21957314675826    4.28413029821350
F          -2.95506138297236  -13.59732735676927    6.12482399839456
N          -2.02092410292690   -8.85431941041256    5.94820829090520
N          -2.60927676207432   -8.02592915934736    5.13407314324017
N          -3.51767567180729   -8.53457874415526    4.34716321095887
C          -2.30665339560280   -6.62277351620645    5.13496468802591
C          -3.12516596191566   -5.90538334416834    6.20323797077157
C          -1.34784627600948  -11.48437772773513    7.28304629982142
C          -0.82686583367875  -12.64663253224308    7.81328603524474
C           0.09303828303766  -12.42126888417256    8.83564138497468
C           0.27769286215178  -11.08235501797031    9.10688282327193
S          -0.67582730117567  -10.08093954808733    8.06459802651052
C           2.15805618354841   -9.27240461620555   11.65424639850856
C           2.51428751246317  -10.63784229121907   11.78450403075040
C           3.39878748443426  -11.15912767101118   12.72589273002079
C           3.87384224599326  -10.19808425428339   13.64172742823053
C           3.50553560587059   -8.83154724546656   13.52850501957245
C           2.67239630610135   -8.29987503124749   12.53853443641651
C           1.24802091824193   -9.23825840856507   10.56408276939082
C           1.10582550865028  -10.52839330371336   10.12554918865647
O           1.87714188086219  -11.38063499754549   10.85490891670736
C           4.68611923511379  -10.27099996431745   14.80187714075299
C           4.77054446978240   -8.99909168912872   15.30465346004457
O           4.06974080857946   -8.12454138545984   14.53407639995553
C           3.75656865323935  -12.55125623210369   12.71934189044311
C           4.81233157346022  -13.18417958108687   13.32255181012633
C           4.82467500980529  -14.56372277208565   13.05700075765599
C           3.80886235711439  -15.01941229666651   12.26871151158066
S           2.80034055381852  -13.69228721616523   11.80905058834078
F           5.77756281607413  -15.37678423461733   13.55608546605503
C           3.56226171056251  -16.40862096925590   11.79101894261163
C           3.76798425602904  -16.52512534427026   10.27990841148880
C           2.37732636177881   -6.89365921858326   12.46499653746023
C           2.70581977308897   -5.91238331470192   13.36687522388190
C           2.26377282738066   -4.64317876155577   12.95739567731376
C           1.61086133143080   -4.60436703982195   11.75973162114219
S           1.52442199417719   -6.20177719419469   11.10784333414743
F           2.47503060681416   -3.53784900017148   13.69449211405930
C           1.00628648869493   -3.43184534208018   11.06860765533905
C          -0.51748020067001   -3.54562655376325   11.00087678248982
C           5.42500166028317   -8.50223287807483   16.46836709292497
C           6.20427683395682   -9.19854478377393   17.36857252859364
C           6.66512415366240   -8.40418770938002   18.41530018217853
C           6.24567342418383   -7.09142321517373   18.33277008437905
S           5.26398257239490   -6.83908472613196   16.92056518678904
C           6.53990800482115   -6.04562643822670   19.26599397305711
C           6.09455535312960   -4.73633529218387   19.13964542989272
C           6.37241500239067   -3.71275343591795   20.05852224823491
C           7.12888025746597   -3.89782752802229   21.20671403138018
C           7.59756799759260   -5.22415112734268   21.35961366913406
C           7.31998601831963   -6.26708375830018   20.42889490029247
F           5.34186164099376   -4.39537576166293   18.07559906595851
F           5.85506823392456   -2.50317475664749   19.76989072764193
N           8.34045346861856   -5.74997867246239   22.34039261948735
N           8.48357661037758   -7.00007079196693   22.00614053040144
N           7.91342671627727   -7.37572624699413   20.89511894242310
C           9.26595278685607   -7.90394939054880   22.79960177118201
C          10.75316925830360   -7.68108358121121   22.54405148345656
C           7.43595713405044   -2.88570079640438   22.17759114540253
C           7.05694918974803   -1.56453167984085   22.21754402499156
C           7.55688025957389   -0.88253111848913   23.33861716975507
C           8.31126805742810   -1.67952966873329   24.14352013849255
S           8.42317466520328   -3.28626823359122   23.55568704731826
H          -4.43209765382447   -7.74009725135930   -0.02891074196080
H          -2.96627105238684   -7.86178639432604    2.20360973750210
H          -0.93178635407829   -1.47304556342510   -1.21712827954752
H          -0.43889600009388   -5.13782773517141    2.65708835902530
H           2.25086410223096   -0.53467122105199    2.47595561291871
H           2.03776297130803   -1.22677275570683    4.09223531670344
H           0.07741675431649    0.66684533024812    2.69382357254792
H           1.19174238599597    1.11705617266836    3.99000295924672
H          -0.13475111259174   -0.00255010881640    4.31477205075883
H          -5.18205802559624   -7.67369136831321   -1.91443290623014
H          -8.37504532191975   -5.28884404655995   -5.07529012682406
H          -7.30484917346636   -6.23460208539111   -6.09744225081333
H          -6.96735856047381   -3.25272660839299   -5.48367832520496
H          -7.60014228699888   -3.91961448295920   -6.99200520275585
H          -5.91719367989532   -4.19564786055232   -6.53671332031718
H          -1.58107433448436    0.70476275223018   -2.94810435501668
H          -2.87869291133321    2.09555359440007   -4.72314640663919
H          -6.42792858262991    3.99792590823501   -2.65987038331980
H          -8.18023970354078    3.63120948548828   -2.72493291453107
H          -6.65602306247930    5.39560275010838   -4.71241149544137
H          -7.73540644259562    5.98695832094727   -3.44392018232103
H          -8.38564411034210    5.02889676377298   -4.77917428500131
H          -9.98327845348262   -1.74106973763993   -7.28132451363414
H         -10.63420910955044   -3.59260783424557   -5.58634359904134
H          -7.85470344233197   -2.47284996652184   -1.72705796697996
H          -8.86790091204835   -9.56337099164426   -0.64794482353390
H         -11.38056395182598   -6.11507202839812   -3.82527974054685
H         -11.15001554331303  -11.39774724341553   -4.76248870381399
H         -12.60844313561958  -10.56404853700694   -5.32870648255340
H         -12.17433428497934  -11.66219591111394   -2.50388513356878
H         -13.17546781932152  -12.41163739673892   -3.75347808301880
H         -13.63763609972530  -10.85018848874880   -3.06959475455075
H          -5.94651575991334   -5.75556832688397    1.98979320310244
H          -3.38822710872549   -1.29521728032787    0.41712057490950
H          -3.15953218792637   -1.78916436254099    2.10252655412636
H          -5.48018473724320   -0.09552117446016    1.04643514806869
H          -4.09262224605995    0.51505477395404    1.95612068098854
H          -5.25055621215992   -0.56990914363152    2.73239353635026
H          -7.66558754274801  -11.41623105378669    0.88072939328309
H          -6.13949339024101  -12.57248433837102    2.61195041552196
H          -2.54904633037849   -6.22588190685025    4.14825628253520
H          -1.23979004448757   -6.51553335024747    5.33984707211986
H          -4.18721294040403   -6.02700723890026    6.00599397269472
H          -2.88917012113500   -4.84590597079672    6.18655860441309
H          -2.89579814861763   -6.30587122541530    7.18762203335427
H          -1.09781789464295  -13.62744547836406    7.47029186751874
H           0.60557386713108  -13.19519621425060    9.37786415971393
H           0.73964272804322   -8.39312497563813   10.15116090979238
H           5.12075332731891  -11.14118811351419   15.24356033440536
H           5.57667158818008  -12.69832742983210   13.89610739990545
H           2.53886236903698  -16.70327898476043   12.03761864790987
H           4.24874294884923  -17.07974354145970   12.31161101879524
H           3.08700893674772  -15.85886038685316    9.75520642959883
H           3.58060169347567  -17.54477869996347    9.95343927689901
H           4.78796258459878  -16.25692698323488   10.01435558183352
H           3.23133837462562   -6.07477236617136   14.28753281625533
H           1.40583507797196   -3.35947467883807   10.05346642849534
H           1.28804609673412   -2.52947783114297   11.61535178253212
H          -0.80358968604765   -4.44166230747697   10.45452919319127
H          -0.93569138198474   -2.67925778208254   10.49504004125613
H          -0.93839074216310   -3.60021258006498   12.00217746125242
H           6.42704588274304  -10.24457469604049   17.26592033548959
H           7.28346277617449   -8.75344131835632   19.22071825731857
H           8.96880790614304   -8.91674387756514   22.52297636710123
H           9.03188289240347   -7.71560470362253   23.84955907615941
H          10.98996865187797   -7.86688924172185   21.49928766677581
H          11.33821724829484   -8.35646472039826   23.16125864237857
H          11.02099899598895   -6.65669755816229   22.79022792206343
H           6.44060124121645   -1.09751829124057   21.47288612230178
H           7.36210739876442    0.15603590442643   23.53779803274775
H           8.80655708695539   -1.41608071268957   25.05721760422619
