272
 SCF done       -498.083954341747          0.000445543164
C          16.02123661911342   -3.84547043632178   -6.80023058436629
C          17.03104825460979   -3.44048383912216   -7.68576572562271
C          17.56256132204182   -2.12929092546731   -7.61233023159714
C          17.14339519737475   -1.19635311685303   -6.67513160453533
C          16.11467028590427   -1.59488031644453   -5.80680004560223
C          15.57154535806809   -2.90137670867395   -5.88962624726944
C          17.63679366136494   -4.19267207923758   -8.73650159057919
C          18.58653241762429   -3.50141193690437   -9.39764335319629
S          18.81331879824761   -1.89150190947531   -8.80490934945279
C          15.48375523778016   -0.82770141989302   -4.79833827948187
C          14.52766664736980   -1.50811751256924   -4.10361081165287
S          14.33433783288878   -3.15129322455857   -4.68278255757751
C          15.47935994967690   -5.21177562418703   -6.82173002490309
C          17.72644958121302    0.14748686910328   -6.56843574810501
C          13.75925418453616   -0.99598124902027   -3.02075796391725
S          14.10000717331884    0.59137550634351   -2.41058321338245
C          12.83597396179513    0.45331720279694   -1.21261096144446
C          12.21772687940083   -0.77740270039729   -1.31095481680160
C          12.73612284631604   -1.59100551605000   -2.31693054447841
C          16.33308137451165   -6.30819115406802   -6.74933377549601
C          15.80377758997684   -7.58310306884960   -6.75076484225466
C          14.44036357006790   -7.84367735221379   -6.83172768317887
C          13.62263422058520   -6.72108249784681   -6.89987538421757
C          14.10749206163163   -5.42843613357261   -6.89581393422203
F          12.28925847410390   -6.90122359916160   -6.98490461767257
F          16.65635431123101   -8.62640869265975   -6.67668036136836
C          13.88768899660914   -9.23742291496897   -6.79567991206145
C          13.62365477566760   -9.67128781417445   -5.35179365269016
C          17.85029319583856    0.96535101911326   -7.68644345908203
C          18.35614869488820    2.24271163565071   -7.54398760094934
C          18.76048283087901    2.77249056908012   -6.32400863174311
C          18.63359186766961    1.91794268760015   -5.23429534097712
C          18.13989497687288    0.63399746075522   -5.33014999089164
F          18.45135355243980    3.01550956094147   -8.64479290416491
F          19.00603392649662    2.37006338486906   -4.01605560720404
C          19.25371592593923    4.18113190149137   -6.17317790809674
C          18.12621224026396    5.09555959560493   -5.68779079880889
C          12.61732086516884    1.56359480834336   -0.33224895548721
C          13.53357124557835    2.65204491305956   -0.40304331134002
C          13.43040204607085    3.81758413134172    0.39861546995351
C          12.38832821431474    4.02175142399061    1.34232004723655
C          11.51180832789152    2.94529441081259    1.41828393298693
C          11.61732664308919    1.76446620545523    0.61916860487613
C          10.36548966403853    2.76223990359842    2.33458141459138
N           9.83101455314363    1.52705688222076    2.03273549262411
C          10.50372127970728    0.87470372688692    1.02013685133215
O          10.17023149212462   -0.21706551106672    0.61904658915246
C           8.66481211903907    0.97988855400376    2.69038910156817
C           7.39120802202611    1.31412323748568    1.92228502367900
O           9.93182888283753    3.47449541270682    3.20995127388821
N          14.61760996477025    2.80253103721653   -1.17387289031503
N          15.10218111497102    3.96711601835313   -0.84716352711041
N          14.44803335066993    4.62034471039001    0.06906044095791
C          16.27461356697572    4.50613097041191   -1.47970988026075
C          17.19990786903419    5.13244747981383   -0.44704334735704
C          12.36792446102131    5.25817419619652    2.06916407803932
S          13.83557341242186    6.19925711730684    2.13713839520930
C          13.05572265623618    7.42773054742516    3.08011138634777
C          11.72787185615565    7.12514961093384    3.28883565002530
C          11.34607591828623    5.90729735959656    2.72853504598914
C          16.84866908477622   10.55860491058834    3.99064012657939
C          15.54651746582307   10.02817904909717    3.95192478351548
C          14.47117983372684   10.73178512499105    4.55155036955064
C          14.62743982516726   11.95741095797293    5.17788395712425
C          15.93409702948354   12.46772319305953    5.25178832422617
C          17.01509855960481   11.75586683793556    4.67086569947204
C          15.11994166964405    8.79777357161010    3.39515565231058
C          13.78129097226728    8.56763031560291    3.52626677961901
S          12.96404440479594    9.87508287352084    4.35934711536728
C          16.36506378713473   13.64895399196308    5.90256018394258
C          17.71138704325145   13.86332496870473    5.82250950448622
S          18.52148109771885   12.60374281849812    4.91238800350714
C          17.95996921082645    9.85795169585663    3.33375079585164
C          13.48338897089395   12.69560945051389    5.72979054781521
C          18.44175299404923   14.93173534482965    6.42173224915805
S          20.17219870408643   14.92635135879638    6.52002460707290
C          20.16827920891690   16.40646592678924    7.43845542566192
C          18.88364022300702   16.87880207280573    7.59572642505583
C          17.91555257412808   16.05465745252698    7.02791457431747
C          17.82375042638910    9.40382212276016    2.02369121138057
C          18.86260471315007    8.71913097522139    1.42806047810727
C          20.06726916409329    8.45068909949589    2.06801288585016
C          20.17187890523871    8.93947665360554    3.36542718278339
C          19.15653629809126    9.62375599876049    4.00359064614401
F          21.31656054983348    8.71986411248755    4.04391193307659
F          18.69359293298434    8.27759967709129    0.16190956626941
C          21.18959220638298    7.72461713564269    1.38759089767095
C          22.06624477551580    8.70314969618168    0.60260816633846
C          12.58518939826077   12.07406799552246    6.59145248614530
C          11.51099172405923   12.78734436179282    7.08355595673126
C          11.26186078188659   14.11655411816037    6.75832696956912
C          12.18254371424999   14.70038442341063    5.89580377602538
C          13.27211574174770   14.02628345854025    5.38133043601152
F          10.65891360370269   12.16145686541580    7.91975087076399
F          12.00375167923963   15.98816637168469    5.53393079826834
C          10.10315594869584   14.87292726388795    7.33674762397396
C          10.45247830144098   15.41166748983899    8.72620919798869
C          21.41682872332433   16.95694813820310    7.88102259321867
C          22.60502771363667   16.62948371179646    7.17658851170552
C          23.87412437312498   17.15821031586261    7.53133429917038
C          24.08788340641592   18.04193527370368    8.62684636535116
C          22.91618260441266   18.32594861733678    9.32610580761895
C          21.63921894108339   17.79927067392922    8.96369506644328
C          22.72003222227567   19.12069876480709   10.55988831931827
N          21.38520369581625   19.00016115468653   10.88920846072649
C          20.66947823199957   18.23203463600910    9.99343761083781
O          19.49382804660387   17.98365250735153   10.12419557619910
C          20.79082999817470   19.63449255044512   12.04521271550234
C          20.25298302166574   21.01857563470485   11.70011364056604
O          23.49988118544217   19.76168327622998   11.22660618290403
N          22.78489714159999   15.84515396312989    6.10624596943211
N          24.06208593099264   15.91344610342919    5.86063246398268
N          24.76055640849455   16.67086511912428    6.65774599486729
C          24.66423601462832   15.21931710154118    4.75652505416493
C          25.96061617622869   14.54944382175938    5.18844262577949
C          25.42758439764726   18.48801467290319    8.87308357433848
S          26.72942651279788   17.73962337580822    7.98015243351259
C          27.90833391445339   18.72547587367974    8.78461817346031
C          27.30919981891036   19.59376908557377    9.67081237099722
C          25.92364793035646   19.45731375121369    9.72132316480377
C          32.11924990273973   17.03385552102978    6.69695220655767
C          31.25429538153543   17.79381345372098    7.50432219438443
C          31.77163318166600   18.80017006638074    8.36018214760156
C          33.12241041599892   19.09482585826894    8.44412211769734
C          33.98880963405505   18.31993476845643    7.65385456868964
C          33.47388898518013   17.30722381223851    6.80448543023547
C          29.84765931473946   17.68488545553657    7.61545115972571
C          29.29008277140199   18.58229470114730    8.47932557256681
S          30.49457591794647   19.61249842493556    9.22870800466004
C          35.39991046447619   18.39210093573913    7.59036567977471
C          35.96041711081424   17.51161887514457    6.71121413362546
S          34.75411343500357   16.51788691107839    5.91691845098386
C          31.59384577458414   16.00383985130914    5.79100254113698
C          33.65045265505149   20.15477900241238    9.31344818793045
C          37.34732551484954   17.37580977183443    6.42614721630483
S          38.48798156652124   18.44195823924909    7.18382655818482
C          39.82296125424653   17.68204518271332    6.35137017845760
C          39.36313711906021   16.65745029070703    5.54842311966920
C          37.98043916555224   16.48603002258174    5.58699300716997
C          30.53911422278561   16.29135103472391    4.92839984697785
C          30.04611908219508   15.30202271096904    4.10229978632067
C          30.55152713256885   14.00751090416730    4.07432713181409
C          31.61236739101692   13.76487426750320    4.94015277047225
C          32.13325846643308   14.72122558090307    5.78810688770160
F          32.14891515706076   12.52851190512742    4.96628909127665
F          29.01037137604317   15.60694755463303    3.28945410360625
C          30.02929988105365   12.95935472737721    3.13738501638321
C          30.82019691691499   12.97368522518176    1.82701954562790
C          33.29789052301497   20.21147834801223   10.65810569037167
C          33.84409273485131   21.19006206547075   11.46414875886616
C          34.74156349604137   22.14686672781080   11.00277146810759
C          35.05523239620891   22.06526849882810    9.65109275570796
C          34.53244189632915   21.10631697294627    8.80794873778785
F          33.49660629602156   21.21241561263227   12.76660055372680
F          35.91989379335525   22.96626764491501    9.13499792253171
C          35.36951723178560   23.16096791918507   11.91227147900881
C          36.63182332532703   22.58591294893771   12.55982183527263
C          41.14563028483004   18.18359799479951    6.58876041091818
C          41.29029060318039   19.23394865933475    7.53959077964681
C          42.53256391133687   19.83331741712563    7.87687289585815
C          43.76397092222527   19.41982294886500    7.30309272197958
C          43.60952482495907   18.41456807305493    6.35720542028378
C          42.35868389897509   17.81508182310426    6.00943140229108
C          44.64459810211114   17.82892104495521    5.47893521702169
N          43.99120613106916   16.90729875136596    4.68495289446297
C          42.63871603328960   16.82650042345952    4.94310863836173
O          41.90745533032740   16.06992483024275    4.34493975526904
C          44.66236459694430   16.09576855967014    3.69376810413404
C          45.15026100308422   14.78204711236463    4.29387531972617
O          45.82522967585309   18.06722954089140    5.38050199178236
N          40.34937688634593   19.84475799759113    8.26643065704345
N          40.99486273751538   20.73185263122277    8.97018509285732
N          42.28294309327228   20.77719454297387    8.79329905308580
C          40.31417285898780   21.62248118129837    9.86651175441250
C          39.35911750100444   22.52173976895948    9.09063173579749
C          44.97892415311982   20.05174275986087    7.73818025930521
S          44.89060732194698   21.63956302554110    8.45994105713636
C          46.58356659674156   21.66288231250862    8.70553144647499
C          47.18403291812298   20.51385661571986    8.28871068461033
C          46.27528647094955   19.59751063835679    7.73728099760734
H          17.35251048395637   -5.19960166960325   -8.98185723458672
H          19.18691209466707   -3.83053053333033  -10.22311693007686
H          15.71077284887288    0.20312305924020   -4.59631918863799
H          11.41050620162443   -1.07554239379583   -0.67041132855875
H          12.37708185971083   -2.58191418765402   -2.53302970920210
H          17.40048974601991   -6.17658974691107   -6.66841609730391
H          13.41586803118980   -4.60439715303946   -6.96550982395748
H          14.60230354501557   -9.92250061505085   -7.25479864498229
H          12.95468876370278   -9.27133686457926   -7.36043479386231
H          14.54583021506351   -9.65242160041544   -4.77533281383289
H          13.22384513652618  -10.68174919802769   -5.33410082170382
H          12.90481794620122   -9.00455129646387   -4.88099071727430
H          17.53558262358965    0.62916282935999   -8.66111855951615
H          18.09177847903035    0.01751710382949   -4.44678584920144
H          19.62783046984697    4.53979071939618   -7.13256251373969
H          20.06980777634780    4.20116279905704   -5.44826438023877
H          17.30384042819893    5.09421805251937   -6.39970995131792
H          18.49166351803448    6.11350289408509   -5.58106913650992
H          17.75294439152425    4.75816369112343   -4.72337319814983
H           8.63113194294854    1.40883471840247    3.69455060162029
H           8.79844686800382   -0.10298980497166    2.74948245371093
H           7.26186967083581    2.39224544327862    1.85866336872560
H           6.53182721275232    0.88742923507110    2.43152025232523
H           7.44292882235731    0.90300951463509    0.91674228935360
H          15.95895679886024    5.26431376285181   -2.20441397457086
H          16.75323276833030    3.68128156790876   -2.01099540200988
H          16.66189520511844    5.88866494740240    0.11782695556204
H          18.04414921169634    5.59965427373139   -0.94458498668288
H          17.57021929457307    4.37814808050093    0.24248388035280
H          11.06413881428538    7.76826882947260    3.83945690728003
H          10.35323790855601    5.50901461698397    2.80557019737507
H          15.77979855761282    8.08469591399799    2.93522125006752
H          15.69982167788098   14.29410569733712    6.44530068393436
H          18.65199849851602   17.79188918739192    8.10835458955068
H          16.86353887596366   16.27119036515657    7.05791186445231
H          16.92422192478889    9.59494672351068    1.46062748787481
H          19.29978391129253    9.94881028553401    5.02123548407182
H          20.77624192667513    6.98065416461313    0.70431592075957
H          21.79667885949832    7.21428171653615    2.13668091696243
H          21.47885444439892    9.21278982783723   -0.15782266450718
H          22.87669045083115    8.16798674285366    0.11468768208026
H          22.49344659063087    9.44807167643709    1.26996026251312
H          12.72260379177262   11.04933464101508    6.89648713271820
H          13.93447381082492   14.53269964714748    4.69715049236574
H           9.24215499488268   14.20665334746884    7.41538067450034
H           9.84611420914864   15.70310717672947    6.67750413939282
H          10.69522308007562   14.59325986908732    9.40020206980334
H           9.60774528001429   15.95909266986322    9.13596291805330
H          11.30700298241916   16.08259394603943    8.67013240396976
H          21.56649111923805   19.70691049416532   12.81113313996373
H          19.98154515662788   18.98690281444425   12.39091571503130
H          21.05931307255941   21.65735151004709   11.34706135797427
H          19.80814911213702   21.47063720698074   12.58202639500631
H          19.49433325817721   20.94331838409985   10.92440285960962
H          24.87064291540615   15.94456852531256    3.96234027971657
H          23.92689205482609   14.49829783284830    4.39937929752429
H          26.63015746271530   15.29054459584603    5.61655250156392
H          26.44146733025437   14.09440802319456    4.32799063415456
H          25.76724927707899   13.78074872369552    5.93229185423755
H          27.86593466114061   20.29863935357657   10.26306161329856
H          25.29689448166843   20.04363741133358   10.36479515702714
H          29.25779604281566   16.95587223625469    7.09038460265174
H          35.99490935846228   19.05983649920197    8.18631087908247
H          40.01506434223649   16.05490581541564    4.94600861900929
H          37.45177813019536   15.73805236938644    5.02244878025468
H          30.11413990307896   17.28119943724077    4.88022834603161
H          32.94087816580283   14.45440618126930    6.45026884238602
H          28.97587033924977   13.15111377825598    2.92727981088838
H          30.12171839424503   11.97773929069493    3.60484556170105
H          30.73293162574871   13.94333925977663    1.34187099940470
H          30.43829224522913   12.21181406938054    1.15254378604131
H          31.87189984666485   12.77341906502213    2.01755195059414
H          32.62285985452790   19.48950509455812   11.08836866933393
H          34.80273322651887   21.11466863903387    7.76408466486858
H          34.65837154103626   23.43868007544226   12.69161740092375
H          35.62745172708732   24.05236522785727   11.33828808369996
H          36.38452337923268   21.71503888922152   13.16244408169412
H          37.09551510901446   23.33081887809930   13.20118500826190
H          37.34795934557955   22.28823891988631   11.79661739504625
H          45.50564840379901   16.67887342900868    3.31596682128671
H          43.94801491491602   15.90476633207465    2.88942214156581
H          45.85182778362557   14.97631146893575    5.10194622794314
H          45.64974061627863   14.19196320197463    3.53075103590205
H          44.30936378662300   14.21287144464708    4.68337490704650
H          41.08448540746815   22.20129267767405   10.37828789577556
H          39.75884798947323   21.02055638450090   10.59161975409176
H          39.90735944394874   23.13326562731140    8.37854618988211
H          38.82565145288569   23.17775500118535    9.77169165392368
H          38.63653964888297   21.91645043538576    8.54966777877626
H          47.04092080519305   22.52514297892512    9.14955728876509
H          48.24016622704298   20.32857312764705    8.36741996129712
H          46.56474510509754   18.63816350976157    7.35535174164552
