170
 SCF done       -329.538896059064          0.000407179424
C          -7.90198404792420   -1.01222911667887   -6.36169367172073
C          -8.28153171832629   -2.31736646685934   -6.11796067021427
C          -7.21219274057674   -3.19826051334120   -6.17259187127053
C          -5.99508398581388   -2.59329358147937   -6.45732534557434
S          -6.19821914347586   -0.87606045168125   -6.66286609249803
C          -4.76990950438996   -3.29921613750124   -6.56037068105588
S          -4.82858974926459   -5.02838042655705   -6.31620539603443
C          -3.10910475353574   -5.21456827618029   -6.56429358279081
C          -2.52846913003393   -3.97883625367825   -6.82848799995883
C          -3.46503134201949   -2.89776696240229   -6.82183196456516
C          -1.11177893486466   -3.78532648172490   -7.08030733782583
C          -0.71074329688663   -2.40169140522462   -7.30557379301226
C          -1.64783111571034   -1.31943663602428   -7.29759257143696
C          -3.07363380979511   -1.52082681869571   -7.06748047226491
C           0.57696153899294   -1.99271559414297   -7.55346657297138
S           0.64685168984739   -0.27634538371284   -7.75322879188606
C          -1.05697850168293   -0.09874969071748   -7.51581339948096
O          -3.87650109007815   -0.59006134933859   -7.08518095117022
O          -0.30299158043574   -4.71124546253493   -7.09832541342093
C          -1.68607417273518    1.24397214593914   -7.60791069813705
C          -2.26883463178503    1.47664419395602   -9.00510175467579
C           1.82256165531772   -2.80065204219127   -7.60791784315562
C           2.35289088864817   -3.07552874550187   -6.19745652786567
C          -2.57963931488202   -6.52410907832903   -6.44988080826732
C          -3.34258483180123   -7.64445088936018   -6.14236855619788
C          -2.61351225125675   -8.81970200857408   -6.05750449927135
C          -1.26761750880927   -8.62348777954389   -6.30510916632183
S          -0.90591831911624   -6.95918082807547   -6.64847681905180
C          -0.22785587926383   -9.58877746952289   -6.28328509884569
S          -0.51705254316074  -11.25141927137286   -5.84385929274005
C           1.16460900198541  -11.66092876216773   -6.02579105504561
C           1.86786740421769  -10.53999603897628   -6.42663328836247
C           1.10227504736486   -9.38149777623979   -6.56764984133699
C          -8.73816028163568    0.13951736280433   -6.38252419386366
C          -8.37232160339364    1.43896823096758   -6.62909478956219
C          -9.47145201921057    2.31211363973263   -6.56574836563065
C         -10.65897730604527    1.71099607048811   -6.27817265536077
S         -10.45162073982662    0.02159229169780   -6.07360903336800
F          -9.35843457772665    3.63253204828963   -6.77257795582198
F           3.17369158154542  -10.55703759281999   -6.71203396230370
C           1.71338515839596  -16.84337381010431   -5.23627503165260
C           0.55802225823583  -17.58071947881520   -5.41698185478263
C           0.75395098210657  -18.93355631546187   -5.18655720742645
C           2.05446442670994  -19.26646568951815   -4.82571081653207
S           3.05704064004575  -17.84427280130063   -4.77784563821143
C           2.48704339348232  -20.58448255143788   -4.53512713607346
S           1.29910544476378  -21.86142657248044   -4.65316135115712
C           2.44361220215636  -23.09618075444335   -4.18299572939928
C           3.69143271243490  -22.52641823293279   -3.95120430205050
C           3.71621775933737  -21.11046066857392   -4.15041541255948
C           4.86393038127779  -23.27797855912026   -3.54042204575076
C           6.07473434859224  -22.48622118932433   -3.36469440755952
C           6.10084381350376  -21.07018205762535   -3.56833068878047
C           4.91978081568320  -20.31769710978041   -3.97239932397366
C           7.29659840191030  -22.99767403095226   -3.00044989272475
S           8.47660802775042  -21.73887538758256   -2.88428395562189
C           7.33662354450343  -20.51818212467360   -3.33320957385550
O           4.95443198627153  -19.10215182474875   -4.15431450488693
O           4.84685534296098  -24.49174124219748   -3.34425945227475
C           7.77175433100066  -19.10372837979187   -3.46314216291334
C           8.07689227284454  -18.76116704963601   -4.92452834885603
C           7.66613018555694  -24.39910090567302   -2.67428075656762
C           7.28021931843315  -24.74101303065499   -1.23194132195892
C           1.96649529047171  -24.42851128387603   -4.10563161286330
C           0.66337589665454  -24.80952275083163   -4.40387145805227
C           0.41844337601150  -26.16480191156683   -4.24568184998214
C           1.53648061845111  -26.85486893377397   -3.81571345391302
S           2.90810326582191  -25.80822884779975   -3.61554280592092
C           1.66623071618830  -28.24093414799815   -3.53932275705296
S           0.34908946583887  -29.36517759348004   -3.74449079284568
C           1.32405448127842  -30.70503028107008   -3.21252481130108
C           2.59620429885889  -30.25568361380821   -2.91228508774792
C           2.79536251932376  -28.88592623531009   -3.08886586016417
C           1.89790092423286  -15.44323057501771   -5.37602315409271
C           3.06936897962470  -14.74673593448231   -5.18461405930401
C           2.91915925022691  -13.37545214999145   -5.39359269117190
C           1.64571069785928  -12.97474774745845   -5.75345749381970
S           0.60137279324189  -14.36555007171112   -5.82085941934742
F           3.92864396318980  -12.52110728007879   -5.19898945506625
F           3.58864116928998  -31.06865279484595   -2.53603861059123
C          -1.31466346073610  -35.20306239634233   -3.94787988758531
C          -2.32466225250059  -35.10871761468496   -4.88705264039479
C          -2.95703304382473  -36.32207239717278   -5.10587052965905
C          -2.45021969780412  -37.37092267875281   -4.34773722802695
S          -1.15363901014872  -36.81773817968790   -3.32685227039060
C          -2.92488206156288  -38.70395288312370   -4.42658054208178
S          -4.22703506371550  -39.01779236607209   -5.54847164767912
C          -4.26879096954021  -40.72221837345519   -5.16617963665024
C          -3.30830651360810  -41.02004935261985   -4.20647247047170
C          -2.55234610081760  -39.88081338528335   -3.78625349641252
C          -3.08261519019173  -42.35105252255965   -3.67092365326679
C          -2.01130652050999  -42.44299287685707   -2.68585344282929
C          -1.25754638252477  -41.30202366850536   -2.26197490541982
C          -1.49828529670393  -39.96470912386813   -2.79115296358480
C          -1.61013251725234  -43.60603170804160   -2.07500684255000
S          -0.32257107964606  -43.30099083485788   -0.96152064687003
C          -0.31009132084575  -41.60814935538342   -1.31568673501849
O          -0.84790219242268  -38.98894633468974   -2.42164396498221
O          -3.74297893250792  -43.33016556442917   -4.01229139674058
C           0.67794884973632  -40.71666293139390   -0.65515233317478
C           1.89657886805904  -40.49290774475849   -1.55564890940918
C          -2.15770685748425  -44.97910050823281   -2.22275600500165
C          -3.40004702041645  -45.16410806735038   -1.34618707420438
C          -5.22156884729106  -41.51264375611245   -5.85704166616871
C          -6.09722887481767  -41.00769755453415   -6.80922559163665
C          -6.94327228302112  -41.95861459118586   -7.35898062035052
C          -6.73125871754464  -43.21851153145560   -6.83488539674955
S          -5.46665830256489  -43.22388432139117   -5.64628275233588
C          -7.41882803032447  -44.41855398850183   -7.17139432409138
S          -8.69148233742451  -44.42908491957265   -8.36551625758387
C          -8.94051706600304  -46.11292252342164   -8.16304596148166
C          -8.08751547091653  -46.61874122119631   -7.22980872044579
C          -7.21810242159114  -45.67496282006982   -6.65723985967659
C          -0.44785619016062  -34.17489919919366   -3.49486626848739
C           0.53826463663080  -34.28188041308553   -2.54136326920268
C           1.22891257721300  -33.08433177358404   -2.34847255184747
C           0.80838134838468  -32.03246516399044   -3.14056332401370
S          -0.51210510589568  -32.55781381023932   -4.14431203907679
F           2.18753773453872  -32.96540663594653   -1.42423476237277
F          -8.07708648146845  -47.91463640810650   -6.88402977985518
H          -9.29649725445518   -2.60746108271870   -5.90995879221385
H          -7.30215498908990   -4.25842709000513   -6.01051043993427
H          -0.94084997843998    2.01092153710800   -7.38808797838720
H          -2.49569169332388    1.30601842938442   -6.87827896398640
H          -1.49666961505883    1.37451891480204   -9.76481214442807
H          -2.69069757938791    2.47586697778196   -9.06631670091452
H          -3.05751809140908    0.75517954296875   -9.20052714626669
H           2.57817089648338   -2.26633672106342   -8.18694749450633
H           1.60469259828710   -3.75520754726334   -8.09047183544617
H           2.53849448149555   -2.14289221373523   -5.66871614413071
H           3.28155713810615   -3.63610865247607   -6.25582393884154
H           1.62915551312082   -3.66264087782167   -5.63872255074348
H          -4.40535132296235   -7.58717103351754   -5.98198524265864
H          -3.03583195870093   -9.78182065038528   -5.82588477803155
H           1.50667424852671   -8.43298551930523   -6.86949259947294
H          -7.36649448690220    1.74814691939263   -6.84439087838398
H         -11.62432512928484    2.16283192685738   -6.17792277829493
H          -0.38220746497999  -17.14303184194774   -5.70354455528849
H          -0.02283505066235  -19.67356862093907   -5.27374515046969
H           8.66215522659878  -18.93937974585590   -2.85330069089091
H           6.96830485034777  -18.45265024499727   -3.11349363059004
H           8.84252481054573  -19.42407518507739   -5.32217880758731
H           8.42890347160806  -17.73600462852935   -4.99660199767955
H           7.17524037293698  -18.86022726695524   -5.52271996740222
H           8.74112671936081  -24.53307601557635   -2.80902476017259
H           7.13037139224458  -25.07195697390168   -3.34650980499297
H           7.75942841797124  -24.05742809490404   -0.53423594750566
H           7.59089890416513  -25.75536461626841   -0.99818877609169
H           6.20236597781474  -24.67308099741621   -1.11252534529605
H          -0.07950014705239  -24.10155900940675   -4.72875589776292
H          -0.53078377268821  -26.63637764022505   -4.43087404167006
H           3.73007422519004  -28.39056250392645   -2.90112529390286
H           3.99619435046778  -15.20727218534809   -4.89614414323375
H          -2.58079856788155  -34.19089497607938   -5.38673025739788
H          -3.76744042697344  -36.45716214924413   -5.80115787398025
H           0.99600549280769  -41.16285153222683    0.28908036739442
H           0.20775357165876  -39.75125601104813   -0.45902493949960
H           2.36605286527419  -41.44121997185565   -1.80890144577764
H           2.62281542197845  -39.86807924031497   -1.04351341826763
H           1.59267891353935  -39.99125884854479   -2.47034536117236
H          -1.39581758097455  -45.70769337325378   -1.93900322705502
H          -2.43993564144376  -45.13741129794885   -3.26524765385927
H          -3.16543880832698  -44.96760498693776   -0.30207832147660
H          -3.76694028488134  -46.18252879016971   -1.43727159659196
H          -4.18348725384739  -44.48366130932196   -1.66854655338492
H          -6.10634562753923  -39.96778037770832   -7.08639287534196
H          -7.68472494391344  -41.74931518008027   -8.10998631313019
H          -9.68631401213056  -46.63119433014097   -8.72989547568540
H          -6.48432352310081  -45.90568886879556   -5.90759637589876
H           0.74995910789227  -35.18641331870849   -2.00166802197445
