290
 SCF done       -489.493833028995          0.000846388706
C          -2.98297201552208    8.94167028927936    1.36600589773477
C          -2.23532817935750    8.75153878874235    0.18153707264854
C          -0.84374566799114    8.70539042742898    0.15149942282447
C          -0.19015863826683    8.86381077739235    1.38889758427976
C          -0.93981427363533    9.05519878989187    2.57526709041003
C          -2.32785645218269    9.11962580820955    2.59830275756446
C          -4.38594089800702    8.86225865967482    1.12063653334002
C          -4.68203385851000    8.63943453904339   -0.17531100864459
S          -3.28723247196273    8.51656895897426   -1.19051734436793
C           1.20222568386030    8.90707937131672    1.63917866810848
C           1.52242598061749    9.09825709573263    2.95070631154221
S           0.10142430666103    9.25116234770305    3.96164623201470
C          -0.12293418097141    8.49190941454868   -1.08655693454769
C          -3.07132279260777    9.37812304442684    3.81590973705435
C           2.83268139284021    9.16874286347506    3.50193155413792
C           3.21193883529444    9.34473819574148    4.81470189795715
C           4.59605171544253    9.35654011304773    4.99222272459899
C           5.29208500567360    9.19014247749584    3.81442252223867
S           4.21725219149613    9.01410874218068    2.46425271225410
C          -4.12517322248238   10.22932411765923    3.99212245815654
C          -4.60163718593404   10.25902941729005    5.31811801749278
C          -3.92453007388881    9.42682725395728    6.15484760192130
S          -2.66045184211775    8.59142769031861    5.31296728990707
C          -4.11821140550883    9.21861081702682    7.61718947951798
C          -2.98726735558678    9.86431088744087    8.42037262639800
C          -0.40545927655232    8.99852156219761   -2.32456519476370
C           0.49383123329022    8.57308664978053   -3.32187553050234
C           1.45506933827304    7.72644241910555   -2.86210342771692
S           1.26844381525536    7.44469032419088   -1.16369482085928
C           2.58843037080325    7.10718074977164   -3.60482225310206
C           3.92887040819410    7.71372779875339   -3.18333349860235
C           6.69939699040602    9.16263649170586    3.62566913520053
N           7.57072117222217    9.24633963696509    4.57052165995086
C           8.84554959149198    9.20862445207006    4.11726039064041
C           8.96569231595907    9.09077178081645    2.70667037774668
S           7.38107027009633    9.01179116030808    1.99913274033335
C           9.98527056082177    9.30017412127660    4.94543210099596
C          11.20272240308545    9.29934098772518    4.26611879485933
C          11.32125229135336    9.20687050546605    2.85303769562155
C          10.18275685143293    9.08396270694342    2.02767794830289
S          12.78917562650251    9.39024500364552    4.97013164153636
C          13.46704258634082    9.31488174754618    3.33700087135074
N          12.59404847458923    9.22550395933957    2.39408823705170
C           9.86129512657632    9.39242898978663    6.37616402706526
C           8.75514358870900    9.13762462266788    7.14714157648716
C           8.97305081182827    9.33070768888926    8.52111085971799
C          10.23814653748274    9.74027726045890    8.81985479379275
S          11.19672275784129    9.88373435875850    7.38569643818354
C          10.83753904059797   10.01599279300573   10.15526071182496
C          11.86077744379046    8.94429151799267   10.53655070401786
C          10.30093467834356    8.95795016358804    0.59880856979282
C          11.39243469829729    9.21871886316110   -0.18987902529682
C          11.16747987918492    8.97748049358263   -1.55552452354525
C           9.91217760007601    8.52253737284485   -1.82918850672494
S           8.97175078877271    8.39556144721645   -0.38169039228179
C           9.31498298783509    8.16595515444273   -3.14679572892454
C           8.11077285064160    9.04829834829926   -3.47831651369768
C          14.87050004871614    9.38724686166995    3.12551050517047
S          15.98481950168060    9.33884178762524    4.45425676439243
C          17.33447110202329    9.51610309922166    3.37361383527303
C          16.91458337650135    9.60705033184897    2.06474961458524
C          15.52926243454379    9.52550730958814    1.92306038105903
C          20.47519207795636    9.41169938328905    5.33657831227883
C          21.12927500812958    9.83751383675205    4.15541319889543
C          22.50630638170653   10.01038019775259    4.06038478810844
C          23.25256934999593    9.72516086955247    5.22186851356816
C          22.60059011126665    9.26436929341905    6.39238739180395
C          21.22217456123001    9.12558492218279    6.49676754025933
C          19.08026920962282    9.26443911911562    5.14496174103699
C          18.66471569246027    9.55860778442675    3.87960984097768
S          19.99340168930839   10.04868570935677    2.84785745269095
C          24.64622494449454    9.87318101617237    5.42311182302144
C          25.06408363993853    9.50460770669310    6.66786840562047
S          23.73911120053551    8.96638737404013    7.67811248120285
C          23.12228146625026   10.43575748183980    2.82059911755993
C          20.57047839014443    8.73008413879696    7.72837404140806
C          26.39273876217533    9.52028654575607    7.18033428328476
C          26.86553408388556    8.91773559537594    8.32518991237781
C          28.23003617277439    9.11958192914602    8.53180097017366
C          28.81326304538629    9.89818831680938    7.55594621898684
S          27.66008867491523   10.36921757771914    6.34812162184317
C          19.44052837387076    9.25605286929112    8.28942779522841
C          19.09023909174359    8.64789069011037    9.51091318846768
C          19.93925287538344    7.65160714177954    9.88287320256560
S          21.21255341939260    7.45424726710343    8.72371544606847
C          19.90737922732130    6.81328640576692   11.11377789658923
C          21.04004156955672    7.19262525596484   12.06946434137608
C          22.65647506701923   11.35290086846920    1.92010250411174
C          23.48445112513444   11.49705466842675    0.78984895449305
C          24.57388606619913   10.68175859781205    0.80668301819729
S          24.60418844177098    9.72020729509598    2.24705013861307
C          25.67780600471906   10.58005454739202   -0.18821852793021
C          26.97460352695368   11.17986613617423    0.35933747696824
C          30.16736027528821   10.32871257423741    7.51313565555909
N          31.10099513033810    9.83767762487608    8.25082335744946
C          32.29533341311345   10.44948238344625    8.07829162997290
C          32.27799356458708   11.51854457049915    7.14107061557984
S          30.68143473049498   11.65667405446141    6.46493373088566
C          33.46783731758382   10.08863999207875    8.78143694036695
C          34.57042759466398   10.90244850699742    8.52867779502481
C          34.53429847960995   11.99642231827101    7.62846025405208
C          33.38573686336430   12.32554351461183    6.88193785973454
S          36.16130769848805   10.79591571417888    9.22484107408388
C          36.62146842828166   12.22771235307659    8.28989635495248
N          35.68418070091806   12.69667464571195    7.53985922709148
C          33.48438713357807    8.96912690476351    9.68430970103214
C          32.54253364263194    7.98156067787267    9.83172514369586
C          32.87773664802195    7.02865857445623   10.80717666085275
C          34.07029404880599    7.27264958576333   11.42058459526123
S          34.81238954094903    8.70086153674404   10.78453798393058
C          34.75830639233511    6.47030724112165   12.47007719135610
C          35.97599189779858    5.73933134125100   11.90060773071867
C          33.41901238184084   13.42926404566595    5.96335732442093
C          32.45785378698552   13.86084749308146    5.08230933255693
C          32.84143934408583   14.99210377327602    4.34439051841447
C          34.09082678876855   15.43929737001251    4.65554941429530
S          34.83005371692818   14.44669983992603    5.86755816532482
C          34.83222910514578   16.58430518716505    4.05678280334978
C          35.92975386377699   16.09552819124206    3.10898665896162
C          37.90538738194583   12.81982473380579    8.41576625172033
S          39.18668359497585   12.05433294354249    9.29943906158918
C          40.23922493125760   13.40553435253915    9.00502940519047
C          39.60640329298814   14.37725546520238    8.26018704849936
C          38.29571801240296   14.04530615138375    7.91904484143412
C          43.56585356810455   12.68991166778007   10.47106649945241
C          43.85058961630014   14.06438875561147   10.28104333442101
C          45.05799915200281   14.65496968287296   10.63761797425542
C          46.01951610704322   13.80524714821330   11.22093725388295
C          45.74635956057367   12.42451239276282   11.38072527698898
C          44.54261626214820   11.83208281936274   11.01543538938010
C          42.25268678627839   12.36301366393951   10.05587524142642
C          41.56867364317434   13.41145579629972    9.51481210810517
S          42.51467591985982   14.88582941954866    9.51673619273051
C          47.30698908669577   14.14496959669753   11.70174718823475
C          48.02264349740095   13.07890470623968   12.16152766962195
S          47.11927695975223   11.58205064231982   12.04970027699012
C          45.30239075218434   16.06358363764036   10.40351898435550
C          44.32890380437026   10.40773465273267   11.17035791473147
C          49.34248848816114   13.08499686995565   12.69452645209093
C          50.13725180264915   12.00432822683326   13.00917411610283
C          51.39058779584246   12.36573390190209   13.50238336106300
C          51.56504917606126   13.73046088831318   13.58364198356423
S          50.15964647022124   14.58227815248221   13.02681357838831
C          44.72524613390515    9.60270817258241   12.20159520017320
C          44.38450313490676    8.24862623013067   12.01637850042889
C          43.74571466640922    8.00491028134554   10.83973687347052
S          43.53726692491998    9.46693435655324    9.93508912166193
C          43.20830701766223    6.71648965689608   10.31997292864627
C          41.67877654217120    6.70104380001787   10.34961207079536
C          44.43143226597945   17.10535900484407   10.56158611406824
C          44.98509752456447   18.35390798506283   10.21773985045700
C          46.27048214761621   18.27574721225469    9.77768104364921
S          46.83132824899737   16.63730773127536    9.79496431728185
C          47.18342880421189   19.37859626405539    9.36641915563476
C          48.27718688090508   19.61084124554165   10.41085845072460
C          52.71111696338053   14.41422964270003   14.07189520977992
N          53.83060842133398   13.83969031955791   14.34406363248508
C          54.76376130558347   14.69116231209371   14.82882106600221
C          54.32218829060596   16.03679880114851   14.95649539715304
S          52.68109473441645   16.15288693611325   14.39261561844840
C          56.06676034716593   14.29137531878958   15.20486347703939
C          56.85303778624115   15.30678205809000   15.74669759621422
C          56.40079518934639   16.64166120365381   15.88808719613980
C          55.11595291064643   17.05474955969017   15.48504418783915
S          58.48510794734285   15.19717058214334   16.34025292843857
C          58.41702645882849   16.92313927407097   16.72801669354730
N          57.29861899090642   17.48937880132015   16.43382458687303
C          56.51608171763036   12.93712833418415   15.02351246802830
C          55.93255991370040   11.94008615257082   14.28209453609255
C          56.64722963807381   10.73172857844043   14.30749118952546
C          57.77736449964040   10.78268754192400   15.06812162269436
S          57.98283399720788   12.35250257512969   15.76651023821109
C          58.79436919517274    9.71863501787453   15.29558508340872
C          60.07667232026367   10.00312459834682   14.51010177639102
C          54.71672361403225   18.42425596013140   15.65487208973755
C          53.55183832400242   19.04789212765943   15.28054709073621
C          53.50358159736494   20.40584671656914   15.63477254083426
C          54.62283053103953   20.83227842796077   16.28520730204175
S          55.77647385585293   19.55154493241128   16.45641875384565
C          54.93211031247933   22.20323611003631   16.77974362153202
C          55.93296876897546   22.90880399002116   15.86198344003989
C          59.51352458491808   17.60806835473448   17.32152079026314
S          61.01071202113125   16.81512997757179   17.69574685885684
C          61.65826582391907   18.27491651791138   18.31917435169729
C          60.77610705728166   19.31048243955518   18.24495154647726
C          59.54911743730669   18.93612911596302   17.67559832121573
H          -5.12625964692666    8.94335735573138    1.89495024554680
H          -5.65127799789469    8.53556281177436   -0.62255675059632
H           1.95639062000753    8.81280883005543    0.87970347644492
H           2.49705934427500    9.45937644215840    5.61025225821342
H           5.09148610345692    9.48674555050217    5.93651011207070
H          -4.51944451067301   10.84693082666920    3.20463345658794
H          -5.42077396970505   10.87866628781935    5.63850222594192
H          -4.14653832084992    8.14843112986245    7.83653446514907
H          -5.07545799587056    9.65434504867716    7.91124992276303
H          -2.03133892196566    9.42883332582342    8.13855156774654
H          -3.14236531800148    9.70766325942250    9.48491668388308
H          -2.94937359708999   10.93397515972348    8.22694884000760
H          -1.21051536824671    9.68633297256882   -2.51015268163984
H           0.42726162201357    8.88603394561079   -4.34890990284202
H           2.43244676142994    7.26234542326623   -4.67452978071326
H           2.60884244791895    6.03093648782326   -3.41454742116360
H           3.93717753644301    8.78446948437037   -3.37467222626170
H           4.74196134584061    7.25445988479554   -3.73986463767634
H           4.09944358911238    7.55128802263575   -2.12138956430090
H           7.82293801540960    8.81620877321701    6.72351638820139
H           8.21509616654655    9.17318053495270    9.26863209713841
H          10.03894858697008   10.04671194618355   10.89963597809108
H          11.33133640785068   10.99110124075867   10.14186380985932
H          11.38818370595540    7.96518155258267   10.56946029616327
H          12.28676933573957    9.15883631098331   11.51359490570953
H          12.66370747535368    8.91571440300592    9.80345765346534
H          12.31841972435982    9.57868157808583    0.21566919478835
H          11.91385480320060    9.13427829273336   -2.31475201006552
H           8.99499848527135    7.12005873167793   -3.13101200061677
H          10.08053190565749    8.27476447235399   -3.91816380155790
H           7.33724405175695    8.92789489328177   -2.72323457561665
H           7.69828382524045    8.77658292264817   -4.44695526792120
H           8.40559288756916   10.09479941076166   -3.50700557174864
H          17.60245998016281    9.72371545847524    1.24606919443126
H          15.00647552452732    9.57067647298661    0.98590085975970
H          18.40454738102103    8.91638303931807    5.90484588340809
H          25.32832088249967   10.24334149639179    4.67978776894580
H          26.23078823052187    8.34648616102351    8.97918738150116
H          28.78849121293827    8.73709310793731    9.36605381553692
H          18.90177831993941   10.08360658888392    7.86335213894451
H          18.23397365594160    8.94089465923459   10.09248992304849
H          20.00543347118305    5.75883533153680   10.84417407532023
H          18.94393584550511    6.95211836747613   11.60852885151014
H          22.00316572008858    7.04630216031591   11.58615968878359
H          21.00132803799771    6.57718498489300   12.96477264964161
H          20.95544545353522    8.23714654740625   12.36024544323747
H          21.76724983056156   11.93579396350950    2.07848556971357
H          23.27476696305355   12.18248599757985   -0.01222710945454
H          25.38083417695536   11.10887284572055   -1.09636527269948
H          25.84905989226149    9.53103055510119   -0.44312781390409
H          26.82997030387358   12.22818735795716    0.61077437453121
H          27.76700950495225   11.10536927119278   -0.38108093868164
H          27.28565093191990   10.64934755210219    1.25653422048879
H          31.64445428413148    7.95212979117294    9.24474070159354
H          32.25406240947875    6.18600767045945   11.05018056391764
H          34.05074235640851    5.74604140307016   12.87936580051451
H          35.08422927618845    7.12747362733128   13.28023677594353
H          35.67363626760855    5.06909574240436   11.09910805064161
H          36.46374888094900    5.15592312241333   12.67762457185373
H          36.69017026937222    6.45578538489599   11.50124928058665
H          31.50477059630063   13.38274546398731    4.95204519641607
H          32.20748126630476   15.45999824563843    3.61142463366618
H          35.28687172054789   17.18137370604370    4.85090307103888
H          34.12939658515689   17.21714146652696    3.51054175494930
H          36.63676728136219   15.46852602500888    3.64704480298991
H          36.46500572108694   16.94003310128550    2.68174655495110
H          35.49710746618893   15.51150953812502    2.29992450552731
H          40.09448774290021   15.29268609013630    7.97590434508220
H          37.62951416771683   14.66021191554502    7.34244069069539
H          41.81443750674740   11.38645566296866   10.15119554434797
H          47.70290136089805   15.14396242102415   11.71452185443155
H          49.80733741560132   10.98917575774855   12.87605351707545
H          52.15298353297413   11.67351579729486   13.80844566468232
H          45.21204791749275    9.97321390392719   13.08550010028127
H          44.60986538175424    7.47963584796610   12.73398689629869
H          43.59801661639141    5.90156405542248   10.93339117614503
H          43.54695040737329    6.56346152780872    9.29222806390388
H          41.31870380207904    6.84689792591754   11.36521553902773
H          41.30357920856439    5.74996215396991    9.98033787979705
H          41.28189804481151    7.49784840418694    9.72503442841632
H          43.43589541347384   16.98766846514200   10.94961702879977
H          44.44426741949135   19.28068240437886   10.29295890434125
H          46.59603034965864   20.29013371469983    9.23792576210003
H          47.65009020293056   19.13384153880103    8.40893814139978
H          47.83488999219363   19.86544652353781   11.37131475026816
H          48.92853882071566   20.42399898654367   10.10075465592271
H          48.87722337668853   18.71209378539706   10.53454856775429
H          55.02197414297185   12.09035962700317   13.73421189886806
H          56.33522050359120    9.84797893001438   13.77860919193059
H          58.37631418308899    8.75893416758950   14.98407563011333
H          59.03400152272899    9.66024284794266   16.36010226264133
H          59.86415766826207   10.05249456522827   13.44450862095432
H          60.80821886671881    9.21788820212495   14.68375731212845
H          60.50384697335173   10.95353422197426   14.82173310697565
H          52.74914609396608   18.55857559709738   14.76073340053617
H          52.66229799262713   21.04125071992159   15.41891483487991
H          55.35272632194138   22.14222039464709   17.78624803231507
H          54.00710883654281   22.78190689767290   16.82817022709238
H          56.85853801939967   22.34036021367724   15.81015124258181
H          56.15421145187955   23.90486007637408   16.23777904846926
H          55.52633116944970   22.99750503351403   14.85723580970314
H          62.65790121306401   18.28212010517244   18.70639230023130
H          60.99929499104421   20.30513855326667   18.58661703071402
H          58.70993544375754   19.58880699146557   17.52173727010405
