290
 SCF done       -513.795498625447          0.000330292386
C          -2.90818080023345    6.67583115355851    2.09462027602195
C          -2.28865449777789    7.08653841136725    0.89063400806558
C          -0.92529144968136    7.34163714289805    0.77947745627010
C          -0.15395939967989    7.15383527900245    1.94192320256616
C          -0.77646772675501    6.75615656110563    3.14988642304992
C          -2.13965835468051    6.49837118983145    3.25956508027719
C          -4.31921855263070    6.54514682550349    1.93673869842997
C          -4.73772978375286    6.83242170323913    0.68768649354064
S          -3.45957886354310    7.27965964294026   -0.38539399847874
C           1.25191557435001    7.26206432440307    2.08309230523164
C           1.70066610214241    6.98902074482245    3.34141778487077
S           0.39212822810100    6.57256578088070    4.43064322309450
C          -0.31678879091789    7.79052533686732   -0.45657581362343
C          -2.70840197012041    6.04603966891413    4.51444157634946
C           3.04366937204644    7.02970641782681    3.81273033808954
C           3.50528977876654    6.79667231122956    5.09003089473749
C           4.88692623106962    6.94173037051748    5.21214643847442
C           5.50033737144663    7.28428874382369    4.02628026371753
S           4.34862690780817    7.43234195287889    2.73785583524071
C          -2.39306473171812    6.46368163263302    5.77575654025920
C          -3.09383885885403    5.75519084381462    6.77487338012454
C          -3.93982846004439    4.79541345264109    6.30080828273631
S          -3.87566511162866    4.75406448193074    4.57352512262258
C          -4.78242093598157    3.83659876305658    7.06699372718429
C          -4.02043408723997    2.53798662172097    7.34332573139860
C           0.62832826250618    8.76274065297807   -0.62257987580231
C           0.99391645298959    8.93845538627954   -1.97401029838308
C           0.35331444859661    8.10533897066713   -2.84479878239247
S          -0.74976610484314    7.08561744765008   -1.98849873976766
C           0.45697996835109    8.05163973082978   -4.32877155733072
C          -0.63349341846873    8.90502376440789   -4.98134880218468
C           6.88575326685379    7.51407801287038    3.80868832594435
N           7.78286372738024    7.45869771629515    4.73184279978282
C           9.02747465970492    7.72838085611172    4.27545006392755
C           9.09581954170137    8.01332887933031    2.88493608047323
S           7.50250800932369    7.91061384374491    2.19864069130755
C          10.18071016855739    7.75812487571944    5.08988290912696
C          11.35534496211465    8.10541169130569    4.42438044776944
C          11.42111723124222    8.40658123982583    3.03716325203171
C          10.27210419368131    8.35331497716217    2.21790912746429
S          12.94584382768263    8.22308836940290    5.11417617645788
C          13.55441832411289    8.67408931918675    3.51508460007545
N          12.65944062336411    8.71934726779307    2.59022324359299
C          10.11251532636260    7.46103019159753    6.49616367394276
C           9.08595175852047    6.87147593371258    7.19018084389059
C           9.34200395849144    6.73830155219375    8.56478028985699
C          10.55718451631935    7.22671673334398    8.94278183024483
S          11.42021281706987    7.85726010246013    7.58161314534558
C          11.17576950798546    7.24558508496871   10.29778134580061
C          12.40045596019766    6.33137241178308   10.36724452051557
C          10.34603140825167    8.62175054979578    0.80617695743980
C          11.37717227432383    9.19254021604602    0.10321710381289
C          11.13096380300592    9.28698712822906   -1.27607364198229
C           9.91923274952551    8.78612106050252   -1.64907881742409
S           9.04654346294752    8.19349230464374   -0.27719987468632
C           9.31468310913172    8.72586738583194   -3.00902791773372
C           8.07705025436760    9.61871393260673   -3.11246699773149
C          14.92829742832890    8.98260353165132    3.32173720208188
S          16.09118383940031    8.70888678729141    4.57873325005312
C          17.36695626739109    9.33964017266774    3.58212719574635
C          16.88892010770946    9.73407599482178    2.35164113962855
C          15.51785237646248    9.52607290874145    2.20083237984312
Cl         -2.89685419703782    6.08768310994588    8.45263616353336
Cl          2.16024552950116   10.10486909674094   -2.47013212675495
C          20.56631957648830    9.03149315990730    5.41983638318354
C          21.13927052428675    9.80379033238857    4.37865348539242
C          22.46760540802806   10.21061105980992    4.37290413079118
C          23.26403251971431    9.77408900401706    5.45064311343741
C          22.69619143794136    8.98577151900972    6.48128994614966
C          21.36068836136910    8.59633210051016    6.49983444844199
C          19.18011056762762    8.83154448675569    5.22010728947202
C          18.70394109955704    9.38578676730983    4.06803990014591
S          19.95632169888281   10.21148356147647    3.16552675921861
C          24.65377138358021    9.96760240943818    5.63814345749646
C          25.14559659242032    9.36902742083193    6.76103927478863
S          23.89781653717536    8.52769719002955    7.65811970541033
C          23.02024513313111   11.05083704822866    3.32966204225346
C          20.83961470990240    7.76356658799742    7.56452009431873
C          26.48650324683277    9.38555465351960    7.23770096109148
C          27.01799614802810    8.69814196759660    8.30733511339245
C          28.37449036994563    8.95202229533368    8.50594235116571
C          28.89493334613387    9.84523215694148    7.59393914624518
S          27.69025693171859   10.37241632131299    6.46408778074006
C          21.15487571056401    7.80517922582971    8.89329676596675
C          20.49634269664756    6.80637418121633    9.64122868827680
C          19.69553306715662    5.98247787894682    8.90486866055593
S          19.73186796291631    6.45699388117913    7.24293159399143
C          18.82599225754474    4.86572743969254    9.36582930159770
C          17.37476003526029    5.32774942206267    9.52057566197340
C          23.86263731731125   12.11672973673056    3.47085356964133
C          24.19891492462400   12.70956935548612    2.23529561499237
C          23.63740147581423   12.10526075332720    1.14810848351063
S          22.64617181531703   10.78010960076793    1.65114085673155
C          23.73727158076665   12.49042881591411   -0.28624298271883
C          22.55919716499331   13.37827773459669   -0.69487511353120
C          30.22700447460794   10.33763261521779    7.54620273499131
N          31.17728412679766    9.91392288287725    8.30572402114712
C          32.34559490898059   10.56355701407754    8.10136428722345
C          32.29037781837731   11.57953530564419    7.10964923397635
S          30.68892848458483   11.63489813884035    6.43554583276546
C          33.53161542433372   10.29691479951122    8.81866995968686
C          34.60305228100592   11.12994614644076    8.50240022892845
C          34.53913045875827   12.16988423302737    7.53586512642530
C          33.36365039470115   12.41083488037551    6.78978398269307
S          36.19771189990161   11.07871307232836    9.19053466268902
C          36.63261604915649   12.45118678255836    8.16243226401577
N          35.68720631879423   12.87244186582990    7.39603428152664
C          33.58750523619614    9.24802318311862    9.80198252765815
C          32.70419599961021    8.21437336294864    9.98758564692254
C          33.04956910967865    7.36692817586057   11.05293973444078
C          34.19047070147381    7.74039840118146   11.69852786660567
S          34.87208303416813    9.15940679490597   10.97937162871464
C          34.86993556900217    7.07954792735562   12.84744263616287
C          36.19075216984025    6.43729857293139   12.41894909326894
C          33.30905511779834   13.44016848080592    5.78611711405231
C          34.21777729144709   14.44004989848861    5.54392711874392
C          33.86014320378536   15.27651481665493    4.47448411383486
C          32.68416932225495   14.92825330328359    3.87924572586813
S          31.98635135042640   13.54624691389475    4.65205745389129
C          31.98816293648781   15.58365431763620    2.73708621213143
C          30.65094971104100   16.18880011770865    3.16746019948939
C          37.92512116456783   13.03815566017690    8.24082059022096
S          39.20941817999900   12.26878293752358    9.11650207583999
C          40.28708597676009   13.58305682344672    8.75659536441982
C          39.65950759359336   14.54924450988784    8.00114727457921
C          38.33289188026757   14.23916181006677    7.70194985456084
Cl         20.70224306540441    6.64532917737487   11.34300211172493
Cl         25.24037642758118   14.07640842974894    2.12183782678382
C          43.63997589835353   12.81547942072338   10.13104017927006
C          43.97137439607756   14.16192119240824    9.83794773417487
C          45.19955381784678   14.73171369661056   10.15080636988929
C          46.15418353534479   13.88225664060265   10.74565595480660
C          45.82971522155489   12.53123777926195   11.01986869420831
C          44.59262522553483   11.96591024946182   10.72795265219185
C          42.29962041335137   12.51860639538786    9.78751651364047
C          41.63234961169007   13.56562753436865    9.22238917372913
S          42.63247899727893   14.99766076833934    9.09968744393480
C          47.49893677258311   14.17909183849198   11.07419009037192
C          48.18689891164343   13.11807193329226   11.58613213310496
S          47.19301290063233   11.67946518797379   11.69368659236576
C          45.49695693729288   16.12733300314069    9.89976757311530
C          44.33308514084781   10.56621250179784   10.99635098506551
C          49.54083826339331   13.08976607758531   12.02400718753570
C          50.28123951913208   12.00088777764824   12.43035388633106
C          51.58313487611574   12.32947833691274   12.80644860165266
C          51.85102614180568   13.67742046659982   12.70004835173413
S          50.47394015376821   14.55338119013142   12.11497555564885
C          44.75370468298450    9.82525120452804   12.06429899479163
C          44.38557321482838    8.46708310004372   11.96345786848710
C          43.69183952634377    8.15074960526807   10.83164981788071
S          43.48125824609923    9.56157420398293    9.85508536632722
C          43.20396202573086    6.81962170133331   10.37815362309870
C          44.21299862648089    6.16098030223356    9.43395393375212
C          46.15221742528891   17.00418437452392   10.71695885239522
C          46.26031058196561   18.29346389218320   10.15387275972839
C          45.70871229536944   18.41468769759354    8.91149635630550
S          45.01510697381676   16.90822706799981    8.42026129878492
C          45.59833889446182   19.62742716739472    8.05551369029890
C          44.24103237933176   20.30815862581798    8.24931486632877
C          53.06537013841022   14.33817600087605   13.02934176270026
N          54.14203741093509   13.72966818907469   13.38937218827839
C          55.15765339398283   14.57646487085657   13.67470277652818
C          54.83376632969131   15.95247496953182   13.53202499628624
S          53.18730317421731   16.10238455769868   12.99555044481460
C          56.43632592327070   14.16010972107598   14.10566471574979
C          57.32136282281625   15.19925177614307   14.39088937241610
C          56.99473038508371   16.57508573883036   14.25618390672830
C          55.71825511115170   16.99159329707726   13.81884704420735
S          58.96707126778232   15.04935463981710   14.93074901909216
C          59.08087504761883   16.81408762334715   14.92502237917535
N          58.00562294889183   17.42185027723837   14.56287872889168
C          56.76466440023756   12.76454447101262   14.22562110248825
C          56.07143814712005   11.68720988213599   13.73233724346231
C          56.67048659060678   10.45218233904408   14.02705064395009
C          57.82008292225575   10.56325959311685   14.75123251513849
S          58.18980624482637   12.22254211236274   15.07441369803045
C          58.73670385695623    9.48359958084043   15.21187279710824
C          60.03444586192110    9.47685364476519   14.40092180776042
C          55.38346054810867   18.38609438773954   13.70143694338416
C          56.07731403974318   19.46802889027612   14.18281499224332
C          55.46180059840098   20.69889071493811   13.90359114785581
C          54.29860876113985   20.58035126147829   13.20273613935700
S          53.93907990906602   18.91885604632350   12.87948761180518
C          53.36724789335191   21.65264406238990   12.75414978167652
C          52.02435612929604   21.56616418648373   13.48183379015516
C          60.28204600821991   17.48145152923674   15.30014999096434
S          61.68571884014017   16.60926978492500   15.83010867384392
C          62.54855411647673   18.07427769047345   16.04924432556642
C          61.80354291036683   19.16962236125821   15.73299450408157
C          60.50863188593340   18.83704919934734   15.30476916771761
Cl         44.78073901418144    7.31272801715297   13.17807529355463
Cl         47.03444933447221   19.59505167091619   10.97383064708730
H          -4.98416084110380    6.26129516336903    2.73074905712218
H          -5.74114049386247    6.81361427187958    0.30978379894373
H           1.91781005027575    7.50886997352109    1.27655999617945
H           2.84910305513247    6.53366672872984    5.90078978309958
H           5.43858077301231    6.81010951252857    6.12427176476822
H          -1.71409496528920    7.26684905294946    5.99346114199557
H          -5.68802140380973    3.61296587320862    6.49990770749668
H          -5.06886627210927    4.29935352938403    8.01379579162423
H          -3.72881951539066    2.06490659092221    6.40834039641620
H          -4.64639086049758    1.84827868638387    7.90331772182208
H          -3.12358471065365    2.74383050211076    7.92248330989092
H           1.02036393138715    9.36480543616364    0.17616782435972
H           0.35719912385372    7.01762002972838   -4.66416603279702
H           1.43981616383464    8.42213370955231   -4.62693734202614
H          -1.61774658924196    8.54645798404747   -4.68868891349050
H          -0.55065479836306    8.85584657851684   -6.06389346643745
H          -0.53591008554549    9.94253027553431   -4.67099124584633
H           8.18382334473810    6.54427307671548    6.70977142875625
H           8.64647952769398    6.29556539042538    9.25638226484858
H          10.43046171450007    6.92388285656299   11.02837975858922
H          11.47976677227612    8.26596533110209   10.54673831729460
H          12.12046369866206    5.30581251917463   10.13723044134576
H          12.83595520300403    6.35882022512045   11.36303784772331
H          13.15084600329198    6.65416719051590    9.64906869498270
H          12.27645917276551    9.53129049460998    0.58055878520093
H          11.83138987298666    9.71026394180695   -1.97490276979217
H           9.02973157532690    7.69510300213175   -3.23733533788136
H          10.06294977570105    9.04220265700735   -3.73907481801997
H           7.32312391284566    9.29962881386730   -2.39643882983337
H           7.65388400295334    9.56334287641397   -4.11238684255472
H           8.33800505232824   10.65331538761765   -2.90130457313812
H          17.52650079281169   10.15239939279011    1.59300890464825
H          14.95696127116104    9.76292959384544    1.31603618230103
H          18.54087359419237    8.30220859388350    5.90223629963894
H          25.28297099710585   10.50313509044761    4.95112175323467
H          26.42886012540328    8.03576637497966    8.91659286153073
H          28.97224290948141    8.52145328781746    9.28765531144774
H          21.80056378168693    8.53880406154911    9.33855309665366
H          19.20060894346045    4.50423549211586   10.32543374792795
H          18.86957700317250    4.04710865123413    8.64436249032128
H          17.31119434722437    6.13414275763154   10.24722536785331
H          16.75371401278466    4.50320930158495    9.86045287890691
H          16.98843152571690    5.68625292299532    8.56906371674240
H          24.19926944250373   12.49786597500757    4.41720550395114
H          23.74547396023247   11.59148468310003   -0.90556111163824
H          24.67383518330890   13.02973446035277   -0.44143194281240
H          21.62006814159101   12.85091776085536   -0.54351692129399
H          22.64205817851264   13.65192745319572   -1.74339275823967
H          22.54714653382348   14.28662180756170   -0.09733711217240
H          31.84115774741290    8.07782753316054    9.36434429021861
H          32.46964180449746    6.50594554923645   11.33650587566439
H          34.20401736176321    6.31786167665518   13.25862844558858
H          35.07011898865408    7.81743517303773   13.62871019683348
H          36.01476630676397    5.68610953941033   11.65224731825471
H          36.67255001762982    5.96131268025817   13.26937393489810
H          36.86111059489052    7.19280168055936   12.01550730095978
H          35.10908325114361   14.55650933905589    6.12971401898159
H          34.45655007314161   16.11201313994799    4.15153240245061
H          31.80780374566790   14.84864339532651    1.94778022678250
H          32.63664152634341   16.36450213014643    2.33378940113977
H          29.99514189914183   15.41245246310235    3.55486611938686
H          30.16305796029437   16.66695160315600    2.32169364868658
H          30.80496161391532   16.93182310680716    3.94677145565408
H          40.16134975115826   15.44408587485949    7.67800489647134
H          37.67516400415649   14.86101975027936    7.12380839804207
H          41.83035743476710   11.56630221237206    9.95295873650995
H          47.96063322380042   15.13500584252408   10.90783359221175
H          49.87793373359609   11.00382502201157   12.44744592455534
H          52.31640011469989   11.62728614832755   13.15717446281175
H          45.27652459522402   10.22874422795793   12.91123352350293
H          42.24830417017589    6.93673848668860    9.86341202851400
H          43.05334498327299    6.18437807090150   11.25334143414501
H          44.36954104696348    6.78309603859867    8.55552323447417
H          43.84710087690112    5.18930314439680    9.11294227840861
H          45.16715230680112    6.02531655589029    9.93747844342117
H          46.50694626194351   16.76105897080441   11.70142524346777
H          45.71632759448382   19.34636456460289    7.00723110889583
H          46.39808694100114   20.32084722200436    8.32301107896388
H          43.43644090990919   19.62509563414527    7.98650668142114
H          44.17066326303181   21.19097979365721    7.61935438874329
H          44.11536198319132   20.60910293120534    9.28659539561784
H          55.16412673019216   11.79821282918650   13.17009551702917
H          56.26290982179911    9.50660267864944   13.71424315811086
H          58.22966645833372    8.52212773267412   15.10523753116103
H          58.97682276557440    9.63019222617709   16.26788128094669
H          59.82009349773561    9.32111770113821   13.34595165826485
H          60.69062256444328    8.68107687017495   14.74455171647313
H          60.55054585728375   10.42774694832201   14.51196356576301
H          56.99634436185753   19.36220009961042   14.72656399059439
H          55.86706004731004   21.64692636845294   14.21178444322313
H          53.19489762406292   21.56286387679492   11.67820226957374
H          53.83119452257185   22.62262685469170   12.94594024084039
H          51.55001208066174   20.60826286220956   13.28108078807233
H          51.36128549308218   22.36022778109571   13.14741582772906
H          52.16897809771704   21.66185696259976   14.55566381516418
H          63.56073338547920   18.03981659519407   16.40056964944163
H          62.16978950327466   20.17794247776579   15.80443405490886
H          59.76105771779121   19.54681232154577   15.00353195651707
