254
 SCF done       -456.425152600985          0.000500135194
C           1.37117464973118    8.21314284857375   -4.32115291922034
C           0.11668218533273    8.78498747327027   -4.04016228826368
C          -0.17481350851321    9.25946222700322   -2.73924145536946
C           0.72097877447119    9.17584668096388   -1.67868262767346
C           1.98946071397468    8.63952570095699   -1.96877478804237
C           2.28783605555169    8.17888122888555   -3.27433560197754
C          -0.97970935631912    8.99347721159123   -4.92789394969380
C          -2.04196032096121    9.56681445151589   -4.32758134716181
S          -1.79304414379397    9.89984616134083   -2.64996969522069
C           3.08998126306825    8.48951862007872   -1.09147453233006
C           4.18285541170798    7.91428409647717   -1.66985805799845
S           3.90838451745154    7.54051065776117   -3.36115964952848
C           1.70412737357765    7.65505726451958   -5.61777796803661
C           0.38950556588767    9.60362377589805   -0.33410317663815
C           2.89182309930106    7.73309134434192   -6.28635809623837
C           2.88252020768197    7.01124408135865   -7.49922820825932
C           1.71262789133961    6.36080438029193   -7.76267854604060
S           0.57363961409124    6.66175440108543   -6.49632102834410
C           0.67827894778096    8.97178954009173    0.84189127875154
C           0.22437033172381    9.69065900190281    1.96787840588062
C          -0.39568202948714   10.87005530633319    1.67437403935695
S          -0.44892326896301   11.10078611703613   -0.03928325258375
C           1.34408855759892    5.54750128164632   -8.95399965812317
C           0.57622484866432    6.38679774878963   -9.97807856331882
C          -1.02578804496041   11.84924234458554    2.60187528128293
C          -2.53830548202529   11.62987656409922    2.68282683699671
C           5.41864720453685    7.61843535163607   -1.03017468322884
C           6.59335133392623    7.17345099146044   -1.60176549325316
C           7.59695527553801    6.98037267705617   -0.66327615825240
C           7.20999166450094    7.25205978887458    0.64224274992321
S           5.55312988371784    7.78035936422262    0.69305301858301
C           8.05629643218436    7.09823622100332    1.76921713277836
S           9.72812603056537    6.70092127198449    1.46089622125463
C          10.11203458136530    6.59815383330470    3.16303404589155
C           8.97690865324125    6.84883242085894    3.92557855207144
C           7.82317344750157    7.15700173757984    3.13798311985455
C           8.93686114115543    6.76827921064643    5.37572084342708
C           7.63211852227985    7.04966856151305    5.96824181774144
C           6.49386826960801    7.41760570516979    5.18140081880451
C           6.54712966264655    7.51932728515440    3.72853520422236
C           7.35779851769073    7.00934920175154    7.31306769557739
S           5.70105901493290    7.40544729109894    7.61571676676633
C           5.36636576555838    7.63638268438326    5.93474864591250
C          11.45802220922018    6.30626573966334    3.49674093184145
C          12.47055443641245    6.17570769553269    2.55478513428653
C          13.71420246876872    5.89961403353852    3.09918628895403
S          12.08265259098161    6.07285384121086    5.10561246120867
O           9.91392248180656    6.46204668406507    6.05566594836548
O           5.58525142699446    7.89876765312581    3.06395744720616
C           8.24508571099604    6.61800714733848    8.43825508015495
C           8.28936303980137    5.09299170623456    8.57402449638885
C           4.01142688408892    8.05618755227040    5.49378054585042
C           3.94993546765050    9.57248822235392    5.28680462456500
C          16.30956272741169    4.76523498597277    8.60800304446633
C          16.00127204450653    5.02528501413927    7.25678751620660
C          17.01923566184036    4.96964515939168    6.27128706656673
C          18.34801242735126    4.69005211742691    6.56356391378852
C          18.64508812225254    4.37796766308415    7.90537671838578
C          17.62596510424003    4.41385859491119    8.88894235015871
C          14.73977343087139    5.32595924894188    6.69040286653042
C          14.77190262913027    5.51472956393194    5.33876825485259
S          16.39067882852268    5.33347744852798    4.68900075352062
C          19.89168015059571    3.99244629253918    8.44999968387227
C          19.86018068547753    3.76084086456711    9.79472442029081
S          18.25728977835679    4.00429868000711   10.46226509740905
C          15.32340196878857    4.88470346322677    9.66251554481731
C          19.39509783693856    4.71980963299143    5.56185287328900
C          15.17029865430912    4.10049063341045   10.77029424957552
C          14.13999392016782    4.55574099523659   11.62007787098670
C          13.51439548950372    5.69099835503565   11.19379206149911
S          14.18990098157593    6.20795354506834    9.68904899045333
C          20.65376059997077    5.23682741070056    5.68145225505068
C          21.41697010214819    5.08067580364910    4.50512708191304
C          20.76832402093653    4.44002488554650    3.49012556674651
S          19.15966320013498    4.03268848083395    3.97948145349980
C          12.36821933870772    6.41600382021160   11.80729799108544
C          11.05274300279280    6.02569908156915   11.12978091798225
C          21.25140022580965    4.14613168817908    2.11298755029921
C          20.76482896077770    5.20829790627282    1.12426043917262
C          13.67877444365499    5.80358838973809    4.47700291507960
C          20.95723003061699    3.36368323781356   10.60793661361490
C          20.94270510736414    2.95282967347047   11.92585969768425
C          22.20826782934485    2.62626868952823   12.39106263913049
C          23.21803989103719    2.79985675193526   11.45356337681360
S          22.56341704300116    3.38021228318732    9.94948165818525
C          24.58750965897410    2.52905358869884   11.70085916244348
S          24.98742290999418    1.76943878376139   13.22264582428700
C          26.70123656578150    1.78368422545689   12.88287194500638
C          26.93886626224984    2.37024101930983   11.64453768000252
C          25.74358390062199    2.76774053170448   10.96663745039559
C          28.26186475271828    2.59072560961265   11.08804436769962
C          28.27857597075658    3.18662522166393    9.75695203892796
C          27.08105305621477    3.55363282717669    9.06474157998275
C          25.75488123034386    3.34182433898161    9.63248454990060
C          29.41655850042957    3.44898190859400    9.03424436489981
S          29.02157933394754    4.17140498409449    7.51248389886430
C          27.32294971044604    4.11414576909273    7.83431697943140
C          27.55709342794615    1.20239939638328   13.85144268887902
C          27.11100414417978    0.52714340128407   14.98050989490467
C          28.12917376417062    0.03117243577175   15.78132360396237
S          29.29664256621423    1.22409614282125   13.79918323705370
O          29.29786778733444    2.32459830414549   11.69377654422339
O          24.72922266916525    3.60882474714150    9.00997366232572
C          30.83756569031918    3.22462499017690    9.40705741760418
C          31.36042029080135    4.35577351011318   10.29727623841741
C          26.35325183089864    4.59140330405267    6.81539106693862
C          25.83104166952767    3.42383652403067    5.97282586633538
C          34.33270367677953    0.21339358363933   15.91930073912167
C          32.96185201891534   -0.03825984858520   16.13336902846541
C          32.54664569847886   -0.90477963240800   17.17624192531141
C          33.43628003759470   -1.57385925964856   18.00731073532180
C          34.80723716327012   -1.31654643020829   17.79929096624175
C          35.22184434850377   -0.44262467218946   16.76380614238918
C          31.86311594727920    0.44325158815907   15.38613220225035
C          30.65103226926932    0.00568936129394   15.83700731581295
S          30.81035465380197   -1.05309300109705   17.22392921918325
C          35.90233921875433   -1.79081161942615   18.55726664526337
C          37.11417373999898   -1.33089079274980   18.12873738740280
S          36.95663565843406   -0.26413770653656   16.74671052082992
C          34.80258875351398    1.12368039072044   14.89463078015250
C          33.00634725125310   -2.50411500380639   19.03152054858105
C          35.91170584878360    0.99948408960293   14.10611512516175
C          36.09609368320216    2.10441289708458   13.24908397605574
C          35.14920712800417    3.07983699834387   13.37052018123341
S          33.99527338030182    2.63505837677699   14.57668471621373
C          33.56976077823661   -3.70466339417154   19.36086415069416
C          32.89561288275034   -4.34688514931743   20.42026834891391
C          31.82915166842827   -3.65410848802894   20.91491516832638
S          31.62844455313791   -2.17362788762633   20.04318165207140
C          35.06532920596469    4.38864979992247   12.66541966463623
C          35.85286024661398    5.46619007174326   13.41497584447366
C          30.87482686578473   -4.05586759165716   21.98454439414198
C          29.65047587220168   -4.75424627564946   21.38735639057441
C          29.38222115151119    0.33418441827126   15.28635920681286
C          38.38240259257861   -1.65828114211139   18.68107773033526
C          39.62135001962523   -1.15262273831496   18.34176345839607
C          40.64371069941278   -1.71314348167465   19.09345326993987
C          40.21630798558488   -2.66368794775318   20.01135227887021
S          38.48917834673423   -2.85662188856758   19.93292338712555
C          41.08086384306304   -3.36478373019650   20.88981410069338
S          42.77251491972792   -2.93358433298114   20.85115290941302
C          43.19481919877612   -4.10668794000170   22.07495637412401
C          42.06332013018555   -4.80000339917272   22.48317822600189
C          40.86854984905068   -4.37983801979000   21.81506096078400
C          42.07042855041249   -5.86041668131350   23.47906863769623
C          40.77201299255020   -6.48414474743453   23.72055502524112
C          39.58029656525556   -6.06515715848788   23.04762690440560
C          39.57004407760979   -4.96869807224684   22.08738002873078
C          40.55306086203951   -7.51524629649022   24.60028388866103
S          38.89005060782077   -7.99428807319812   24.58267362545347
C          38.47545317283284   -6.80054510851662   23.40169229805325
C          44.56559075699129   -4.17458148598509   22.44481685829036
C          45.55217026357494   -3.37589139059372   21.89247340689660
C          46.82595308701606   -3.62074573024545   22.40816881060448
C          46.81022363765078   -4.60521763659433   23.35375325829354
S          45.25062758771869   -5.24983737679939   23.63319265669039
O          43.08634203666598   -6.22050051192502   24.06654086615759
O          38.53157639756976   -4.57561914018741   21.55944983337832
C          41.52741276416153   -8.24121883012058   25.45551083296542
C          42.25604615716190   -9.32144941452389   24.65054449652281
C          37.07059323620615   -6.66536737786542   22.93733594490711
C          36.34056216942447   -5.55849829380289   23.70350395629598
Cl          4.24717603799440    6.95464565344458   -8.54777269491895
Cl          0.44933944589471    9.11856274486225    3.57554969552856
Cl         13.72150555815777    3.74102619950996   13.07823940190239
Cl         23.03564524926432    5.65141271373919    4.37673390699225
Cl         33.39276123201493   -5.87556456760100   21.03652716563271
Cl         37.40537185026762    2.20250293031540   12.13497435333155
H          -0.96051354179954    8.73351166320801   -5.96970966175903
H          -2.98304576918443    9.83185188229634   -4.76814183724647
H           3.09268196056807    8.81740851186068   -0.06837862214143
H           3.73551542119496    8.30755743368030   -5.95245628205130
H           1.15849508601545    8.01320155443606    0.90971240706199
H           0.72629114234657    4.70279138443034   -8.64223043224347
H           2.25799790947492    5.16100547161220   -9.40940121874322
H          -0.34036323115894    6.77344425146111   -9.53807294376763
H           0.31924223614039    5.78004126008518  -10.84235950991624
H           1.18357843037518    7.22567344171193  -10.30939840888521
H          -0.82575757684864   12.86385334297823    2.25155465774849
H          -0.58334147610733   11.72972563015917    3.59291177677391
H          -2.98817714808861   11.74585557423844    1.69941701131766
H          -2.98639516029856   12.35197176396083    3.36030247586285
H          -2.75502199187009   10.62860606522882    3.04741366848088
H           6.70880823670618    7.00367429991577   -2.65793686650661
H           8.58749592859481    6.63756402152030   -0.90800835882827
H          12.29096435348936    6.28736036635892    1.49946663528590
H          14.61335605770070    5.76754766526412    2.52324675197503
H           7.87602937143412    7.05925547394120    9.36588710271693
H           9.25359381309607    6.98351399398367    8.23819446834483
H           7.28687911872682    4.69232016688815    8.70968344614806
H           8.89672262198890    4.81475492107071    9.43005974039485
H           8.72731761988759    4.65639555855125    7.68051160003251
H           3.27453365519711    7.75749690312342    6.24200096625794
H           3.78004536147014    7.56876302562399    4.54463878201934
H           4.21633759701898   10.09684470779385    6.20226179234171
H           2.94385534432457    9.86117216627068    4.99642496984272
H           4.63535588743579    9.86454293684657    4.49585365634569
H          13.82253237100473    5.38268579659846    7.24695822371317
H          20.78546528199783    3.85637465755843    7.86949773717043
H          15.73955840210253    3.21081488117816   10.96425887746519
H          21.01653851980486    5.74624346453246    6.55490881125453
H          12.52137140881321    7.49239914999708   11.70631578514232
H          12.32375397379847    6.16869305038086   12.86962862643351
H          11.09309207188296    6.26078588381473   10.06860547132279
H          10.22379163606805    6.56709918124679   11.57838955342849
H          10.87669113181083    4.95855218566253   11.24447565112247
H          20.88556328682196    3.16619820746467    1.80004684073341
H          22.34301974742994    4.12408856939288    2.12046333377418
H          19.67777732378187    5.23986128373282    1.11123620509277
H          21.12062590188175    4.97984979166213    0.12303477664542
H          21.13681778868427    6.18899973580799    1.41101795375188
H          20.04419494944428    2.88816477323831   12.51413805616258
H          22.40756730406449    2.27783551207183   13.38979716842351
H          26.06399803721105    0.39967802248927   15.19548628573538
H          27.97242990308963   -0.52154280992800   16.69106538836800
H          31.44384763297953    3.16029295753413    8.50135826336932
H          30.91355988449289    2.28648027266724    9.96038982186883
H          31.24955851385916    5.31780380195350    9.80127765081966
H          32.41228724329466    4.19212123134425   10.51530155424636
H          30.80968863556024    4.37161993968628   11.23382343781539
H          26.83549081896698    5.32528223478446    6.16669590261806
H          25.50657199780587    5.05825977384213    7.32212333468237
H          26.65255781233376    2.90738722770548    5.48053663299435
H          25.14610760245752    3.79602933349504    5.21652365916747
H          25.29707668246957    2.72130020740541    6.60693239265001
H          31.94625688431571    1.08635313766012   14.52977644409246
H          35.80947055795421   -2.42788494639291   19.41715741199251
H          36.55823765651082    0.14193267122848   14.10468439491497
H          34.40613103702625   -4.14026971388033   18.84644203778963
H          34.01949332312024    4.69161666859838   12.58696003458268
H          35.47473380253529    4.27432063640067   11.65907489144929
H          35.45586196167932    5.59319398342404   14.41949173388321
H          35.78365186051982    6.41504521152910   12.88947925036515
H          36.90015430967274    5.18392840532850   13.48890587957312
H          30.55406425503139   -3.17130860645532   22.53780550899576
H          31.38254223506712   -4.73369444391534   22.67396461434643
H          29.13773767623099   -4.08904747972455   20.69637051738504
H          28.95957094928425   -5.04008901134155   22.17614860207697
H          29.95273524550765   -5.64860210467987   20.84776711312864
H          39.76583576042612   -0.40499027057638   17.58158811126071
H          41.68126007925589   -1.44871634529239   18.98349067106122
H          45.34404001849255   -2.63870152538748   21.13639264644999
H          47.70972590951938   -3.09371758833317   22.09510291825699
H          47.64647339355739   -4.98820540756056   23.90559906124768
H          41.00290793443322   -8.69999070446764   26.29598815439131
H          42.26527965138681   -7.53087090588898   25.83276325419267
H          41.54506365294485  -10.02085284932410   24.21536654807157
H          42.93510266711711   -9.86889201685069   25.29820981695932
H          42.83406221414051   -8.86057658260943   23.85415226427239
H          36.54788608631679   -7.61376213294264   23.07680793468719
H          37.07191660053867   -6.40714732928439   21.87657718017450
H          36.34665710920631   -5.76206434725088   24.77233242610108
H          35.31084195557368   -5.49713738860880   23.36282027245771
H          36.82307656705306   -4.60249164780436   23.51941919253320
