404
 SCF done       -666.601793280210          0.000507682921
C           1.56149908009612   17.00387498912981   20.05173352906218
C           0.67505066402050   16.08102704286885   20.63961484048800
C           0.91322734884105   14.69148854238391   20.53225942243772
C           2.00429857513382   14.14793752288777   19.85404189868957
C           2.86405251995553   15.07322814343749   19.22690918195272
C           2.63402169062544   16.46473645252215   19.34753317918753
C          -0.51128316207967   16.35389432908176   21.38338737949100
C          -1.11666170742322   15.24075813597006   21.84128531378906
S          -0.30284738097700   13.78339361039519   21.39265431746361
C           4.01521402876232   14.80351239081297   18.45009687016999
C           4.68534608671264   15.91738119996637   18.03853893151058
S           3.89083211271984   17.38703145455617   18.55895515323895
C           1.40107678968174   18.43744463411683   20.17363896853598
C           2.25748139742207   12.72434194277860   19.84118535651010
C           1.62685091307433   19.39644816024267   19.22472692922007
C           1.42477444382501   20.70955558356043   19.68042406942666
C           1.05588474801734   20.76343091583376   20.99486966342862
S           0.94037626400825   19.17612412100481   21.68729812906277
C           1.35876745680989   11.69044625751153   19.83525837395612
C           1.95022995447451   10.41710680219145   19.86465690904407
C           3.31583691647010   10.46595102795667   19.90744535026993
S           3.88920664877777   12.10211436804528   19.91876201078870
S           0.71977687039034   22.22180906464890   21.89212851366534
C           0.30121302699707   21.53298307456479   23.53799639713427
S           4.39650948129917    9.09571248845628   19.95621688583621
C           5.97526836353608    9.89186362010209   19.47187973443221
C           5.89644963281635   15.93299376794316   17.29190176947575
S           6.58560412016980   14.42390507014780   16.77684827588586
C           7.94983067996112   15.23757543421741   16.05408713862968
C           7.84141088230212   16.59845397736389   16.22022814545286
C           6.68864424840554   16.98994159696289   16.90908804090398
C           8.97060136624980   14.44399264991072   15.42431824508630
C           8.77532026277670   13.08753226057751   15.26705476466352
C           9.73526685000907   12.24112721687862   14.69565065279297
C          10.97952272131590   12.74560688992955   14.28796993607382
C          11.20974554776631   14.14854705942672   14.42546792657894
C          10.20143500878224   15.00571839312460   14.94263163023283
N          12.41147879178522   14.63605551081374   14.10887838120514
C          12.63426214537129   15.93343541612816   14.17406365442055
C          11.54748369060504   16.81412132328485   14.47507318602991
N          10.40182471259159   16.32680969903580   14.91128445710242
C          11.59130170197270   18.24287670579169   14.28353708184258
C          14.00554409489924   16.32953037532205   13.94889703528676
C          12.26083679201934   18.98460625187792   13.34732366763395
C          11.96969443036046   20.35762311790977   13.42585409195020
C          11.07662321845317   20.66826984788972   14.40881677701121
S          10.56145192711358   19.25008698181918   15.25425679735412
C          10.57552010662564   22.01307987373157   14.80810516576568
C          11.16896327817579   22.44996551920706   16.14922270561188
S          14.73524391927397   17.73193433296144   14.67167817772188
C          16.26911199150744   17.35783018645191   13.95263034327153
C          16.20183517426378   16.21387837946416   13.21494559330091
C          14.92759517175732   15.62005035005377   13.22504460323903
C          17.43635702871749   18.26308360061432   14.14191884627198
C          17.15916856784193   19.65865089297917   13.58132785565067
C          12.84677414272454    9.72444701256284   13.10882302520056
S          14.40303414211826   10.46947519718478   12.84378158964966
C          14.13029712752765    7.97623686574333   12.27929180289625
C          12.88488761573121    8.39568491505151   12.75754200073096
C          15.07356048420353    8.97686155551524   12.26239022555200
C          11.96619969872594   11.88842892904314   13.78393304240090
C          11.77481256812875   10.53200550511412   13.62528054078016
C          10.49144732460944    9.99117625007671   13.97430251678417
C           9.49920895449087   10.84157506994731   14.53359204121512
N          10.18567785560703    8.71258388434062   13.73168140534417
C           8.99803862302365    8.23641601309909   14.05452035871595
C           8.07277009186617    9.05333375827863   14.77698720796623
N           8.33814248284953   10.33320682861663   14.94994358905474
C           6.83077398741475    8.61447860644268   15.36207216209700
C           8.72090516120155    6.90187676721174   13.58078711871922
S          10.06609214121981    5.83780639895563   13.29481176509127
C           9.01901029832319    4.60359958770364   12.68486418675703
C           7.71968166610607    5.01841274405611   12.68371479824141
C           7.54556356709045    6.31860832000363   13.19051177690108
C           9.57493102921779    3.30601366145289   12.20953063910247
C          10.37333688505286    3.48523216489370   10.91674364022048
C           6.42042516632130    7.40047982955956   15.84526806880452
C           5.12202821389928    7.43691746709292   16.38445047425754
C           4.54081226311281    8.67056837706042   16.31941668822925
S           5.61176341220836    9.83055029211518   15.61310782399097
C           3.15329577905879    9.05099044259899   16.70285530753090
C           2.21141116508193    8.96075132897733   15.49990937990353
C          -0.04124608759957   22.66027388277790   24.49099921762418
C           7.05204467666475    8.84004669913964   19.30448907224042
C          19.78182090686024   10.44370298848775   11.49134551172245
C          18.63338837274660    9.62601151778091   11.49528072316650
C          18.69528094040646    8.29882836184616   11.00895685227215
C          19.85489638588106    7.73264639377276   10.48986510572659
C          20.99058734116810    8.56811661113952   10.44297124959495
C          20.93098445791131    9.89561290087333   10.93746919589928
C          17.33554568744097    9.96238687098616   11.94559604888299
C          16.43899548086006    8.93744934646219   11.86685983292599
S          17.15921341429740    7.48879539105753   11.19574206192440
C          22.27325644523921    8.25637167544574    9.93932902493705
C          23.18390380268767    9.26759367577366   10.06432143744386
S          22.47765068061075   10.69058566191264   10.80148243879652
C          19.72569459325833   11.76912064257645   12.07679199369894
C          19.87623243894134    6.35637959879705   10.04150512663516
C          19.12442043844183   12.12311556750011   13.25455256435368
C          19.17506772197394   13.50076338602259   13.52452017390261
C          19.82726692365819   14.19911147203216   12.55131941257777
S          20.40565602004757   13.16019170755292   11.28408227438257
C          18.88996917732837    5.67154794206332    9.38808134162701
C          19.19890828581946    4.32356046369298    9.12909229346691
C          20.42857988617285    3.96749466909503    9.60234304278530
S          21.23080951080091    5.30003601929786   10.36895159819723
S          20.10962545699069   15.92774736103623   12.48784861388828
C          20.74955897797510   16.20197964919910   14.19403027756256
S          21.27334003947369    2.44010329724034    9.53284169269821
C          20.03731886266020    1.38133949817524    8.68988225748341
C          24.55358765138075    9.20979082577913    9.67721916784516
S          25.65273188939402   10.53617362985229    9.89642624423290
C          26.97809231481279    9.61103836830436    9.23955555013503
C          26.55107182667334    8.35671802098818    8.86786312395155
C          25.19896274373902    8.12866807367235    9.11353100496322
C          28.29368385529517   10.17990993272971    9.13206113716651
C          28.50150378077277   11.52955609274033    9.31877441271704
C          29.76716141772097   12.12368277274125    9.19465396140022
C          30.89873730208182   11.36402031010350    8.84522708537311
C          30.71039587830897    9.96275054027049    8.64185715554856
C          29.43732704432905    9.36135455354299    8.84154337826533
N          31.72626668537084    9.22292654995045    8.19611527237833
C          31.59051198624798    7.92007049295978    8.04996772995373
C          30.40432704436883    7.28796528922387    8.54324837362373
N          29.35682953527845    8.02936423011061    8.84581536450180
C          30.25900601886844    5.87962827909894    8.80449185513796
C          32.66533513270534    7.26736084745934    7.35114884374399
C          31.19271528247179    4.91356977360223    9.07200164984465
C          30.61860133751325    3.66647865134750    9.37436507243113
C          29.25429785013338    3.67396270844587    9.34640916101688
S          28.64665473579239    5.24519281305678    8.95653006306406
C          28.32047018987273    2.53651930011718    9.57720559872913
C          27.59972999222088    2.13527727260892    8.28877205561651
S          34.18098638832635    8.11411791044077    7.25074670559252
C          34.85639799945569    6.87071445255229    6.25528556478847
C          33.94472292902758    5.88551270920230    6.00919777950462
C          32.70024099908102    6.10708313113874    6.62421143895345
C          36.27554672455727    6.94232080395051    5.80755874728629
C          37.23750677663009    6.71169176446452    6.97499442971981
C          33.65389696902728   13.92802773084086    8.79721831278622
S          33.86846987396073   15.57510849576205    9.29451102721361
C          35.93669647550821   14.23511062737355    8.51664368033303
C          34.85140544704268   13.36589088499286    8.40705881344216
C          35.58290749438870   15.47261670327464    9.00510337233921
C          32.16501670315218   11.95503849725287    8.69724317612974
C          32.36382173665194   13.30709454855380    8.87940393972855
C          31.22614552861117   14.11011603926356    9.20938828036031
C          29.94716074868087   13.52892619383761    9.37691879870709
N          31.37997597871795   15.42540967320866    9.37010688481295
C          30.35477759119322   16.19440662083193    9.68038144831060
C          29.05394961807754   15.61110643296228    9.80473389610725
N          28.90429600063890   14.30389578595492    9.66773548776012
C          27.79993130779863   16.28393666073204   10.01815999495206
C          30.65975435813343   17.60124739417333    9.82740043792685
S          31.80513935585045   18.30136822424000    8.72354489145961
C          31.66614622312437   19.84636033535561    9.48529316811570
C          30.81563028995664   19.79162949868423   10.55188892043529
C          30.24154311857713   18.52199046894201   10.74875658761701
C          32.37295630741387   21.03820079540180    8.93525766645527
C          33.70942257131880   20.68442216847817    8.29252401461349
C          27.36732506269198   17.57885728839749    9.90418624343061
C          25.98760666137834   17.71199525222586   10.13690659113807
C          25.36293792548410   16.52924268362298   10.41895337180637
S          26.47747467319969   15.21208322169372   10.38916307377194
C          23.91556200854958   16.29656911556346   10.68714791985259
C          23.68330003560412   15.17970003775456   11.69930729487054
C          21.51111692230590   17.51067985692904   14.24676173368260
C          20.59341708511919   -0.02272510136389    8.55497067131527
C          37.06454137268292   19.93662598694949   10.69396166850481
C          37.11404961774688   18.66213923171600   10.09017875395325
C          38.34515067366060   18.14176496509073    9.62308306982707
C          39.55016142798863   18.83112727985131    9.71199230260472
C          39.48769670328031   20.12815904059124   10.26133851733650
C          38.25474864256755   20.65462953609724   10.71930126864924
C          36.04422348057820   17.76371618254456    9.86497659862740
C          36.42175824791933   16.58045297158906    9.30042032773347
S          38.14519425043829   16.52941315465467    8.98584038656628
C          40.54387473175396   21.05521050939522   10.42119052750204
C          40.16257016686696   22.23960777890369   10.97890728826825
S          38.45034824540712   22.27162061612564   11.34512842777227
C          35.83847434325520   20.41985697710226   11.29189240817051
C          40.78887142773897   18.23769025900983    9.25419720001509
C          34.92524086243887   19.69778986915919   12.01119956390712
C          33.82092257137493   20.44800700878547   12.45103784043179
C          33.89705204489574   21.75669560355939   12.07249396940227
S          35.34359307826613   22.08897517278064   11.17263371418837
C          40.98244582643920   17.45157638076768    8.15271162811327
C          42.30788281126407   17.01068261340534    7.98649977943535
C          43.13452035823562   17.44762315374480    8.98066826676669
S          42.28566211597194   18.42060400660220   10.13832320423916
S          32.76151834513448   23.05977810246698   12.34303574553458
C          31.84097926630524   22.42496928077456   13.79836577773833
S          44.84764871707103   17.19739848701231    9.21343013371335
C          45.20097057045175   15.92270969364010    7.94415403780432
C          41.00249593650688   23.35543781959021   11.25517871897291
S          42.72851660576207   23.16749418078863   11.18035742173548
C          42.97278429727754   24.84292718602512   11.58846202864546
C          41.76893212710939   25.48179477052096   11.76477692885666
C          40.66185923003970   24.64507528473545   11.58902042227649
C          44.31599924598522   25.34593156223388   11.71121380416059
C          45.36898872184445   24.47869153909792   11.89608982199726
C          46.69715010621918   24.91918832352091   12.01024760977134
C          47.01659626627350   26.28565005840631   11.95891265624667
C          45.94076905648122   27.20876163680331   11.78303063733154
C          44.60624255252450   26.74591228663105   11.61519673451409
N          46.18157640126262   28.51919028083976   11.83791318073202
C          45.20822308523460   29.38439286840504   11.63172905205420
C          43.93087760083481   28.90742096572097   11.19460921295410
N          43.65714048687978   27.61966391933119   11.27201670870858
C          42.89755987691284   29.71811384124143   10.60341780908861
C          45.54550394775621   30.75347120920944   11.91970141252017
C          42.96536004973922   30.90131778943850    9.91702750473337
C          41.72106898398224   31.30804338248538    9.40437298593473
C          40.70631671033597   30.44104018090759    9.68805277124277
S          41.27933330732785   29.08184846972587   10.59114134647885
C          39.26191189470243   30.57144890987667    9.34715067891032
C          38.42864945246077   30.91190222173817   10.58463168872778
S          47.23722982233910   31.15141540292134   11.98484287996371
C          46.87658191111876   32.77709002530622   12.45233190433078
C          45.53058000554329   32.97239579767871   12.56810532945747
C          44.77128225190743   31.82729648849129   12.27152975394201
C          47.96933192057433   33.77111031502123   12.64672644680674
C          48.63110489889309   34.13606526798829   11.31639406246246
C          50.74224219426195   26.34829472107018   12.44009778957355
S          51.07295166222066   28.04997370251502   12.21587362520138
C          53.02452755656103   26.51381205254117   12.83420269465500
C          51.89330193760848   25.68033667983571   12.76798592582698
C          52.73676237767567   27.81359454924090   12.55976271202467
C          48.34451404332057   26.71877685781837   12.11428265023490
C          49.39881268836670   25.84822814987727   12.28592446939641
C          49.11273143927704   24.44164536075090   12.29567372877911
C          47.76425763925708   23.99613056336689   12.22373998825363
N          50.08481044898124   23.52464651409677   12.29043268212809
C          49.79732394896945   22.23998733088957   12.35356482298171
C          48.44540905825604   21.82999877024355   12.59400126306853
N          47.47942523262115   22.71167557043742   12.43395604834740
C          48.01628980983214   20.54183596007719   13.06727023751403
C          50.89350388657572   21.33583224026737   12.11766638373069
S          52.51427710143507   21.90745838733136   12.37830058717405
C          53.17875129098301   20.40683317990590   11.83068371495026
C          52.19446457589478   19.54363823750602   11.44749590759750
C          50.89836064350732   20.06422713417222   11.60917366675647
C          54.65385295136511   20.20443610148815   11.78264458101679
C          55.28914326708411   21.02805568683482   10.66040727483040
C          48.68338175287116   19.55042412417397   13.73873546333279
C          47.83827827758226   18.50277707396863   14.14112032215543
C          46.53234982283183   18.69014500012900   13.78841973190343
S          46.31704156911522   20.18474538771518   12.94786923939232
C          45.37645506350568   17.78477199783364   14.03925909983665
C          44.82486309016018   17.20690172223795   12.73628044816797
C          30.99422409747115   23.53989828885130   14.37976614884422
C          46.63208046345438   15.44770367914832    8.10351703638972
H          -0.89440670079207   17.34280175593471   21.55367046710987
H          -2.01714710763931   15.16818019864171   22.41899143370652
H           4.35151474992513   13.81944478996063   18.18181958961854
H           1.89726131575627   19.16421599990224   18.21076129971332
H           1.54342594051302   21.58666306602874   19.07171575612393
H           0.29655061850700   11.83523243665720   19.76191488924153
H           1.39843703412415    9.49559872053968   19.84742861137477
H           1.16708918025261   20.96744560952136   23.88404882390943
H          -0.54368349763974   20.85680804129926   23.40175132543727
H           6.23464622971709   10.60544144010036   20.25469408402788
H           5.79492781870154   10.42356552376350   18.53723223367667
H           8.58292224364194   17.28016531665785   15.84843914214288
H           6.43701475913834   18.01189672488885   17.13287355662438
H           7.84978768420892   12.63206241642576   15.58765680584586
H          12.91558873051092   18.55702158682030   12.60906903896812
H          12.40549786701911   21.09264686748937   12.77214406710583
H           9.48620291670344   21.98970473487576   14.89107106796577
H          10.84511746183198   22.73384749885984   14.03322574102187
H          10.89271068025012   21.74453809695998   16.92940786970385
H          10.79884308713070   23.43492126413332   16.42230580482153
H          12.25418539231269   22.48989081741223   16.08762206077887
H          17.04307184850891   15.81185078129120   12.67830770339792
H          14.67463849844085   14.71410228168259   12.70560274351783
H          18.29407577808317   17.82590821447601   13.62715906193937
H          17.67244217147595   18.34646267570284   15.20714603032395
H          16.94472210020782   19.60005947527592   12.51648338643110
H          18.02334725137883   20.30237740083080   13.72599026055701
H          16.30348547002451   20.10497885966167   14.08385737555128
H          14.34751844065040    6.97286880388370   11.95707805475341
H          12.02666609379175    7.75740817598219   12.84741441452438
H          12.91039546792287   12.33775113608706   13.51427336894907
H           6.90649561406039    4.40752269074752   12.33280393623939
H           6.59245331021447    6.81305011455256   13.24306089388057
H           8.75061021342540    2.60982733392122   12.04121357914644
H          10.22915269212372    2.88414134809048   12.97670292374964
H           9.73898822858282    3.89498338315758   10.13401645387897
H          10.76708204993960    2.52916153962092   10.58111930392793
H          11.20428942822093    4.16738453707646   11.08050551140592
H           7.03394593655487    6.51735957607738   15.82826482399932
H           4.63186198887529    6.57840447462747   16.80885829087944
H           3.14090853742082   10.07289227846099   17.08617851191920
H           2.80527784574911    8.38289824140163   17.49280478602640
H           2.54431022265217    9.63013102903924   14.70993539409333
H           1.20316358979724    9.24225696867899   15.79250286558226
H           2.19111801088291    7.94605853152987   15.10893245489916
H           0.80340632188066   23.33644183390586   24.60022384145073
H          -0.29185466908690   22.25228633522379   25.46767802718436
H          -0.89152164625744   23.22766636965162   24.11976828382060
H           7.23278168680447    8.32241413167307   20.24375615636670
H           7.97584151084939    9.31394685184602   18.98008749286689
H           6.75531464563450    8.10838706422065   18.55645759420380
H          17.05907037161871   10.93800725443112   12.30174836446939
H          22.51812363434679    7.31335647242105    9.49049257178086
H          18.67828501127275   11.40921835222901   13.92330432955013
H          18.74009099687873   13.95680239276962   14.39563559841235
H          17.97312337722767    6.12717654922709    9.06108709431849
H          18.53074585535283    3.66013892727924    8.61248555055871
H          21.39547000144785   15.35604529290848   14.42527808435974
H          19.89760564157713   16.21133357131540   14.87372561499790
H          19.83916176555028    1.82210202243351    7.71282635869251
H          19.13104643693433    1.39078206583035    9.29528129463497
H          27.21040776756063    7.62800348539702    8.43730430921461
H          24.70731257743432    7.19972381384521    8.89062648506159
H          27.67199787034392   12.17785832917468    9.56183275681138
H          32.25212509301080    5.09669878665041    9.07227881558619
H          31.19821529948750    2.79085334779679    9.60916111886963
H          27.57656408674067    2.82018768918521   10.32583565997798
H          28.88838670775512    1.68736342717559    9.96321294885824
H          27.02147724092532    2.97313817345390    7.90667620622650
H          26.92518041054755    1.30419051790369    8.47801188030866
H          28.31869359064488    1.83508216937993    7.52968923106301
H          34.15797063897772    5.02442816771887    5.40025475012294
H          31.85768864131493    5.44748450002326    6.51940262511222
H          36.47354193411777    7.92436465546441    5.37144561618132
H          36.44149619044689    6.18551389116614    5.03798944793063
H          37.08477304045449    7.46776975870694    7.74146869560007
H          38.26748944841777    6.76557246722505    6.63161569556872
H          37.06867093265709    5.73219110354367    7.41668249882235
H          36.94963720054154   13.97401675487094    8.26337244163761
H          34.93806318253029   12.35501838646918    8.05100798226603
H          32.98534413243760   11.30189681190157    8.44625490008738
H          30.59567991941482   20.64601203277521   11.16780885967391
H          29.56400127043765   18.28725608518453   11.55106570745482
H          32.51917598292795   21.76381623009874    9.73799444391659
H          31.73111067868464   21.51204933731674    8.18410775365182
H          34.35364614581464   20.17614769447912    9.00508593020828
H          34.21432936741032   21.58539961271421    7.95364885188214
H          33.55833513177423   20.02637245145258    7.43948901863398
H          28.00413793477437   18.40362130915516    9.64141290124974
H          25.47177210332907   18.65574479003932   10.09436934073062
H          23.41814672527496   16.02804685113227    9.74935697711722
H          23.46472210644341   17.22892243663814   11.03716274424914
H          24.08654432606738   14.24068264608040   11.32772101518761
H          22.61891944553412   15.05092909023343   11.86744579956011
H          24.16744558837745   15.41309125915368   12.64541576167802
H          22.34880295047930   17.48911239728830   13.55443465891894
H          21.89191678209576   17.67431894104855   15.25255341269451
H          20.86294010433483   18.34223924884224   13.97995825678340
H          21.51123188091833   -0.01393090041172    7.97178501678159
H          19.86742889593163   -0.66047553249490    8.05538354353411
H          20.81145819167045   -0.44143183732128    9.53461212272244
H          35.01542563361511   17.97720436656613   10.09029610223015
H          41.55879725101449   20.87469135867551   10.11854245405204
H          35.05491159952324   18.65833322939341   12.25256845257254
H          33.01035886030304   20.02530808545841   13.01506499766431
H          40.20444233544583   17.22462498051937    7.44683578880224
H          42.62265386967871   16.40403880704798    7.15786822375734
H          32.58176259903375   22.07135461635875   14.51498458262733
H          31.22000817222456   21.59216772871686   13.46801261497860
H          45.04426891646549   16.37495855312025    6.96479695930862
H          44.49369733854891   15.10777851524707    8.09682155844905
H          41.69947034219690   26.52360474190977   12.01484132078026
H          39.63969991283905   24.96511605660585   11.69129126325907
H          45.19253836190020   23.41514548068044   11.96476111248995
H          43.87887013010567   31.44811603765761    9.76730058681237
H          41.58214859969991   32.21300807866480    8.83904492592533
H          38.89968430838550   29.63280914416973    8.92138805762723
H          39.14549257709098   31.35666199660383    8.59710349364996
H          38.53149519968785   30.12901805793490   11.33222574763583
H          37.37873768412914   31.00443741152610   10.31857034602570
H          38.76216443193036   31.85171942115349   11.01889161022395
H          45.09406449285174   33.91130071484140   12.86109247736970
H          43.69854998099068   31.79105439590163   12.33411743519149
H          48.72549215172899   33.35684073450460   13.31790761316954
H          47.55299988895261   34.66788177590219   13.11058404133310
H          49.05823157087855   33.24871938414383   10.85543926838511
H          49.42357355820694   34.86294289125171   11.47579669636415
H          47.89944356828694   34.56288739702804   10.63407347410506
H          54.01087042961843   26.16009422783415   13.07704560234292
H          51.91704260931159   24.62294578116716   12.94931969479478
H          53.40097482975359   28.65504605516911   12.53950757951022
H          48.52010573725714   27.78459436135792   12.09345273235061
H          52.39213877267908   18.55776673643884   11.06427738145910
H          50.00322661771427   19.53124399828224   11.34333617220893
H          54.86000206044337   19.14375353632910   11.62381397704547
H          55.09621155575890   20.50115085631076   12.73680101671284
H          54.87451404019237   20.73836904418389    9.69754821044713
H          56.36452115836014   20.87017128124793   10.63844344587190
H          55.09408160253543   22.08655468188728   10.81578913007883
H          49.73589770687914   19.58258256845439   13.95614865131387
H          48.18484647611034   17.63912590879772   14.68157627673840
H          44.58227111586573   18.34033148617081   14.54438677892247
H          45.69988354616257   16.97549351205129   14.69782982378458
H          44.48926198064649   18.00822469564554   12.08262472496833
H          43.98356409372398   16.54946596722846   12.93958515304636
H          45.59345556855121   16.64079935570706   12.21596219597343
H          31.62234969399317   24.37148699809289   14.69000505588831
H          30.44470471867508   23.17386092678196   15.24446640461259
H          30.28300185873040   23.90271159364629   13.64112242092767
H          47.32363125911856   16.27804296937471    7.98161435192812
H          46.85674199268168   14.69221066695947    7.35373417592173
H          46.78181175044586   15.01660348888477    9.09062394012017
