227
 SCF done       -380.421819317272          0.000756204193
C           0.64117322170422   13.36449509486802    5.78307126079390
C           0.93981343237730   14.63562821454108    6.30846010992815
C           2.24799823243309   15.16103077221695    6.20323786030416
C           3.30800891245404   14.47768099386387    5.60690245230972
C           3.01945491001660   13.18165950433325    5.13039551510052
C           1.70668112395073   12.66399639610893    5.22792976537588
C           0.06208247419902   15.53547046988884    6.98209321894350
C           0.65973437116466   16.69203855572204    7.33063186147161
S           2.32746770116752   16.76696051789512    6.88143015506009
C           3.90156611787920   12.24850067414530    4.53592297700489
C           3.30919239874658   11.08218959762373    4.14149758847143
S           1.60004974615999   11.07557993973326    4.52225724218807
C          -0.70205332784123   12.82733564542579    5.80614945299662
C           4.61324883441853   15.08219381718055    5.47087481272053
C          -1.88628730787234   13.46509526751091    5.55694286889740
C          -3.01193048463206   12.62847382812198    5.64237879122287
C          -2.68937298242225   11.34016651377929    5.96494811228620
S          -0.97698871403241   11.14247517372651    6.16634262746523
C           5.25857172178744   15.92924093031197    6.33235815178202
C           6.51273479268714   16.36297953974571    5.87559556638721
C           6.83318678575963   15.86003899970341    4.64515583575774
S           5.57599169586301   14.83444173714608    4.03331789164978
S          -3.81964444852175   10.02792065488232    6.16842461748198
C          -2.67011011076248    8.61916158968787    6.40022856186169
S           8.30215203436463   16.18390425836483    3.76410966758008
C           8.14376887354971   14.99631188020103    2.37618540543335
C           3.97109834582324    9.99261741119337    3.50177382155126
S           5.69754204954124   10.12190405432597    3.27759950789261
C           5.75063454722591    8.58902646793355    2.47316369698225
C           4.49791334710950    8.02819530073319    2.39598708258797
C           3.48521029742935    8.80845480307763    2.97298874910651
C           2.06292805509475    8.34560344890300    3.01218454008662
C           1.74843713216838    7.64330739997714    4.33451964888409
C           6.95847976918512    8.04543856216576    1.96323574409676
N           7.02219264652956    6.95849024380590    1.25352626362332
N           8.22747916980747    6.63102466866989    0.86845523965322
C           9.16077145085474    7.44504464094145    1.26403321102410
S           8.53726674515015    8.78662607612404    2.22172108893453
C          10.53509810534585    7.28298163636253    0.94788618231624
S          11.76845717163220    8.28383813154505    1.63658805907889
C          13.00355475236251    7.43326095590910    0.74736690453356
C          12.46203163666914    6.42884131781125   -0.04208381753900
C          11.06878695510611    6.35193886291045    0.08696428816240
C          13.28189205438976    5.53305200966751   -0.91889493369570
C          12.48265846284128    4.42523529493747   -1.59302318717967
C          -3.45605205351937    7.32876923957841    6.51451413805366
C           9.38855858790664   15.04838256919937    1.51391558627473
C          16.99068179631286    9.70919017243504    2.72507400498654
C          16.21212300820154    8.92091093763974    1.85089922050950
C          16.82847762456154    8.21923912959909    0.78728171311552
C          18.19081898961552    8.28349324361592    0.50480362686088
C          18.95765215171680    9.12160790984697    1.34272468060185
C          18.34585188873198    9.79730340291102    2.42546851680648
C          14.81454304104398    8.70855824814249    1.88214485067690
C          14.35853685403731    7.83321496438812    0.93612902851767
S          15.66562948356891    7.24857100242931   -0.07500587531324
C          20.33899214257848    9.41164343846945    1.26241286219741
C          20.80442697118005   10.22227862275079    2.25946908208036
S          19.51757863256531   10.69928686680973    3.34598562141970
C          16.41065765006016   10.36312267325331    3.87536311159662
C          18.77023802217715    7.51586706435155   -0.57367323827367
C          15.44695760014018    9.90221472615748    4.73198874591725
C          15.13511110854904   10.79354998534657    5.77099301603246
C          15.86116981287168   11.95062409366945    5.71146971052046
S          16.94797351738522   11.95214639160094    4.35882364261158
C          18.22125831967194    7.20867800422947   -1.79040998235079
C          19.03973047241516    6.40795546068643   -2.60163768124061
C          20.22456767383738    6.08152478919174   -2.00244945456162
S          20.34188224329575    6.76863362117057   -0.41431885164107
S          15.74039605482333   13.28587054462509    6.82485485274608
C          17.12452396291723   14.34031610945783    6.24780617549375
S          21.47935712719320    5.09714317896205   -2.70587712561910
C          22.82274070157930    5.31133499392843   -1.47686370321855
C          22.15485078688824   10.65447155147724    2.41335578230233
S          23.25762887851205   10.32510765780868    1.10133747378692
C          24.57382303468555   11.03727950258237    1.97346609406653
C          24.16271814301426   11.49362490727233    3.20298472846870
C          22.79913176975969   11.28857327523644    3.46211226643124
C          22.16259294530026   11.74648736573503    4.73627637044917
C          21.58439616285085   13.15527784997214    4.58789479640696
C          25.88423966111723   11.10074769673595    1.43052476948443
N          26.93651136422437   11.46507971730203    2.09994957759710
N          28.04782280386212   11.45928530649822    1.41062348418194
C          27.91126911714516   11.09651889970070    0.17007920488132
S          26.24612032324055   10.69761773132656   -0.24710581905825
C          28.97984808403751   11.02263367582797   -0.76171214659600
S          28.70077609423288   10.77994710356347   -2.45307171479153
C          30.41161156780433   10.83908354354026   -2.77948212029117
C          31.14531158430473   11.02766311370183   -1.61701823110495
C          30.32291371302869   11.13820199033341   -0.48732865003718
C          32.64071828907458   11.10910572838379   -1.59121718296282
C          33.22159604632550   11.41170217219575   -0.21592341751831
C          17.26974559348234   15.54027771394765    7.16155239153358
C          24.06702200930619    4.58818970301849   -1.95102625929493
C          30.15493366883764   10.58459205109989   -7.76378546223431
C          30.70125147595898   10.58369829136278   -6.46218269550688
C          32.09530972587845   10.42507485744749   -6.27643777778986
C          32.99455224305731   10.22891744483932   -7.31980043636450
C          32.43459413025877   10.12673461207007   -8.61156519281566
C          31.04558658474283   10.31935804521412   -8.79918181804298
C          30.01900330525967   10.71293093024695   -5.23121773102321
C          30.83558563049279   10.71644648566891   -4.13441469458472
S          32.51864024828829   10.53802650938410   -4.58956873626390
C          33.09094525015854    9.82031200941620   -9.82647659492572
C          32.27304102362733    9.82045019059139  -10.92211298536967
S          30.62081554589076   10.20206488182054  -10.48314833727041
C          28.75795862403462   10.86571235080459   -7.99626129184769
C          34.42165945199763   10.14484376179628   -7.11509830099733
C          27.94811378126999   11.76487807391738   -7.35382788070994
C          26.64190210087878   11.82154124939923   -7.86448401079099
C          26.44307386520215   10.95778791998410   -8.90569057520203
S          27.87912036325594   10.05274157433318   -9.26616076668011
C          35.42539625350138   10.65187621223405   -7.89676463403135
C          36.71466461443065   10.39830825196650   -7.40324610234313
C          36.70349058399062    9.68661345334854   -6.23580961146679
S          35.08446054731925    9.32749640265216   -5.72277279018790
S          24.95370604954904   10.74670063871905   -9.78525374139656
C          25.52220105469139    9.68824589081425  -11.17025088822452
S          38.11350771473912    9.18375918517614   -5.34343291781306
C          37.33678713278971    8.36567183012220   -3.89929485472178
C          32.66273070686488    9.52093762708146  -12.26095055694237
S          34.30736084268722    8.99790634475455  -12.52597216529455
C          34.02489504820077    8.83265614356365  -14.22634409836632
C          32.73278399091274    9.17317775278648  -14.54823254258030
C          31.95382353976845    9.56632660543393  -13.45006065400843
C          30.51660388151748    9.95138477529387  -13.60963793529601
C          29.59597349888465    8.74579610647307  -13.41043865270052
C          35.03432851422454    8.39447470909650  -15.12394190809630
N          34.85272721815197    8.24812047813282  -16.40192885143258
N          35.90612439749199    7.82922249328645  -17.05505500980705
C          36.95549589659873    7.63010325296425  -16.31597808741380
S          36.67125064384190    7.98372803395193  -14.61465782860329
C          38.20295967043541    7.17064267440741  -16.82304468557540
S          39.58383331266047    6.92504129825027  -15.79939736578869
C          40.51754347352495    6.41362830443568  -17.14394106441172
C          39.81839375603719    6.42401768267157  -18.31625583953015
C          38.49101354842800    6.86117214016950  -18.12871155692966
C          40.39266922631593    6.06084693856410  -19.64930624400460
C          40.70926591972726    7.31660772607235  -20.46274138444956
C          24.39331989515513    9.49162786400274  -12.16169665772792
C          38.41155131826877    7.86954539880461   -2.95327590836283
H          -0.96188516403014   15.30361588783074    7.20960896672754
H           0.23042785483210   17.52883005706076    7.84593795498708
H           4.95537982954650   12.41580868313198    4.40871160292616
H          -1.94398698424089   14.49951742119463    5.26885632352650
H          -4.02136129418953   12.95142084873280    5.46644650463536
H           4.86443070800726   16.19992328480808    7.29475479169268
H           7.16482413982887   17.01502014496792    6.42645209568004
H          -2.09357985197128    8.81535603682036    7.30494501072028
H          -2.00048493801497    8.60434384859921    5.53943570337595
H           7.25452990603786   15.27419474137219    1.80912052791305
H           8.00359167369916   14.00625867086688    2.81165221613095
H           4.33323466778565    7.07540601260639    1.92685714131170
H           1.90474165764957    7.64702160222957    2.18845459206175
H           1.38462220293522    9.18944722609269    2.87690443571266
H           2.41132844126069    6.79278233983923    4.47649965274888
H           0.72118056283985    7.28780545991731    4.33380751575529
H           1.87620401541478    8.32579239038776    5.17091854855628
H          10.43900064287172    5.64921051558975   -0.42403193907141
H          14.07981658308704    5.08646138704977   -0.31785018666817
H          13.76891655939675    6.14345533618439   -1.68605390304696
H          11.99396635676117    3.79635131496919   -0.85285166012508
H          13.15103079764878    3.80298350961291   -2.18328885902748
H          11.72789405223707    4.83927362426125   -2.25690603915490
H          -4.13698965075464    7.37090736725931    7.36129214678757
H          -2.77267871437128    6.49450367847728    6.65654167547079
H          -4.03795836408005    7.15546823264553    5.61236158124769
H           9.52734631665264   16.04583588906581    1.10342387399688
H           9.29470892681780   14.34142883059624    0.69266806724913
H          10.26799421122744   14.78961788063297    2.09884607733298
H          14.15382170774174    9.20123306572506    2.57213400939363
H          20.98559883061478    9.04386741553165    0.48695070097423
H          15.01031495441307    8.92310524623428    4.65060095606012
H          14.41321221035248   10.59619957438029    6.54169920795279
H          17.27070772716289    7.58828567743068   -2.11788574507222
H          18.77945869212773    6.08460398402483   -3.59235529296017
H          16.89817526603193   14.64388397280523    5.22510433396686
H          18.02379156804914   13.72317792570716    6.25253297990958
H          22.46479581160830    4.90874659632353   -0.52855071104981
H          23.00009715095656    6.38255708742334   -1.37453465250476
H          24.84357197427279   11.96385874748212    3.88881210222904
H          22.92282514942977   11.75171914942432    5.51970299881244
H          21.37082105129577   11.05761356749517    5.03446721323928
H          22.36551297013214   13.85528719849183    4.30028102490755
H          21.15310033241048   13.48289247321321    5.53040472063122
H          20.80677336568683   13.17192590022211    3.82836153871331
H          30.66984903277061   11.29522334306124    0.51599887715633
H          32.96247059693645   11.88204013608752   -2.29605966261874
H          33.04898479576632   10.16057919401841   -1.95519688969216
H          32.84801998349718   12.36075469382049    0.16077090771583
H          34.30515270712691   11.47389500946385   -0.28408718925378
H          32.96928032584164   10.62737696152292    0.49346441742201
H          16.35675485898835   16.13093608773757    7.16311508641669
H          18.09044238419531   16.16586008101267    6.81770465195640
H          17.47568488171818   15.22101783531865    8.18050961258419
H          23.86872594012362    3.52561319066717   -2.07064427183634
H          24.86497799577511    4.71578621152604   -1.22301307302069
H          24.39852875772355    4.98759637143885   -2.90660586969858
H          28.94912078093379   10.77636149528702   -5.14844666657957
H          34.13506860883508    9.57226774638126   -9.89054327751621
H          28.29798931895953   12.41255694742742   -6.57027520391197
H          25.87548221779973   12.47750359570697   -7.49515071447763
H          35.24048103302692   11.23563073959625   -8.78049394122077
H          37.62056861889532   10.72604529252908   -7.87861303097785
H          25.84736551511178    8.73888667239747  -10.74323498036595
H          26.37441248566903   10.19043446525365  -11.62960941182766
H          36.73029919139717    7.54295040727893   -4.27956657998456
H          36.69062125742655    9.10170620301917   -3.41929956728671
H          32.37407268284107    9.13616508883790  -15.56059707693053
H          30.37663810214135   10.34552899463079  -14.61806342361906
H          30.25104391976501   10.73556711347723  -12.89922797947082
H          29.84476050444868    7.96078343535905  -14.12077830953131
H          28.55981732472048    9.03761431628732  -13.56207250515107
H          29.69741200574448    8.34779495553549  -12.40407157519865
H          41.53954294688568    6.12712157870499  -16.99090311241275
H          37.75875913903786    6.94623422452780  -18.91016638325078
H          39.67195827967696    5.44862758073976  -20.19531755345248
H          41.30359503803596    5.47653552602959  -19.50829350717693
H          39.80945543540373    7.90798886619524  -20.61374554906432
H          41.11412195964586    7.04496661114954  -21.43451268771391
H          41.44011748078738    7.93071752248551  -19.94139112419985
H          23.54087402585118    9.01863384204411  -11.68002284348767
H          24.72900177470476    8.85743923358580  -12.97918338023020
H          24.07272472703903   10.44768694303654  -12.56882638791628
H          39.05922043143033    7.15398199669069   -3.45421692234362
H          37.95055218817183    7.38391500504751   -2.09615074466438
H          39.02102351087984    8.69810778087669   -2.60042426918952
