314
 SCF done       -521.492078880242          0.000634771928
C          -0.44347629296466    4.78706167479272   -2.39374486255279
C          -1.70645098629344    5.03006360671674   -1.83218778176848
C          -1.82897099999848    5.40591184381184   -0.47172648046896
C          -0.73836122067158    5.56648751052280    0.36776858957671
C           0.52260989416979    5.29470267127239   -0.18919311990797
C           0.64703612935706    4.91157903934126   -1.54640454052051
C          -2.98264510720804    4.92782630120409   -2.46320731529233
C          -4.00389916357574    5.23405832080194   -1.63844106342267
S          -3.50078837027436    5.66130366949250   -0.03767579572728
C           1.77644253059423    5.33084738429096    0.46445291116721
C           2.83286253334865    5.03680493384214   -0.34630727725272
S           2.32244670782842    4.66604634979490   -1.98436376969864
C          -0.28113611838067    4.42282695186774   -3.80802025494088
C          -0.82700351687229    5.97983954136643    1.77390685988373
C           4.19401567009194    5.01676826814429    0.06548341317332
C           5.32255168887994    4.67322037647190   -0.65038142944249
C           6.47757614758232    4.75305025098839    0.11568028749949
C           6.26201282035304    5.16038398295505    1.42593835620850
S           4.57269518890806    5.47482694971502    1.69693268730830
C           7.27174699155841    5.24769339700008    2.41563541903305
S           8.90286471921009    4.86177654642949    1.92330875762645
C           9.53370223172165    5.05806736086265    3.54100824925441
C           8.50933605502737    5.40471863466452    4.41638618078199
C           7.23600036527732    5.53427932795158    3.77644189885612
C           8.68644336227676    5.59485700246502    5.84485357065832
C           7.46989447115022    5.91801560344482    6.58172077839602
C           6.20791651995115    6.10336856413546    5.93298430655856
C           6.04094547526170    5.94571790499650    4.49240658606845
C           7.40232361588143    6.07693736978682    7.94462371043381
S           5.79210002480692    6.48236663137468    8.43082362045819
C           5.19927527348531    6.43107032988517    6.80622905960199
C          10.92231215360713    4.84416775847281    3.72015979464895
C          11.80393448091918    4.51080066355385    2.69946279226490
C          13.11764604004275    4.34748551152527    3.11568092252366
S          11.76280290455924    4.95896952399904    5.23889839706766
O           9.77454912956554    5.48848725839927    6.40749902634852
O           4.96336610019734    6.15104820627990    3.93725012572016
C           8.48326026108500    5.96790368824713    8.95957978939164
C           9.28343117694645    7.26950293659575    9.06361261974707
C           3.75895048291660    6.67600454777005    6.53258935451947
C           2.99926855365605    5.36031512206848    6.34337525197768
C          13.26745151971925    4.55652784582066    4.47196669668750
C          -1.67410449092003    5.29858519748311    2.67411735096735
C          -1.66073891057163    5.59737514611401    4.00563458797511
C          -0.79788037981494    6.59071982307255    4.51897037086252
C           0.01840408583118    7.31561914150295    3.61087511212822
C          -0.02452361371646    6.99394965846871    2.24401665064210
C          -0.85522847310072    5.22914354983167   -4.81569316680265
C          -0.70370953764384    4.91310827021433   -6.13373099214716
C           0.02845670869497    3.77040497332401   -6.52544657579245
C           0.61296797330060    2.95916651901515   -5.51703964496560
C           0.44257714591391    3.31112202796589   -4.16625463266688
C           0.19527727022991    3.41288861462980   -7.87281893563599
C           0.91790102399039    2.29593768165052   -8.22463847128849
C           1.50619214630887    1.49767270013203   -7.22678024387893
C           1.35063859050865    1.82391460836186   -5.90960053039238
C          -0.70807327911672    6.87542084551245    5.89198998186482
C           0.16132598385186    7.83396015791553    6.35869007523440
C           0.96223933894068    8.55946276218526    5.45754969028158
C           0.88264385782203    8.30752665358588    4.11835225232482
S           0.25888495093991    8.04545269996631    8.11134713927954
C           1.05091769453215    9.68727691238928    8.31946391963918
C           0.89035584152853   10.12953355365279    9.76163477072857
S           1.07099835222161    1.96345560293017   -9.95295462880618
C           1.81416987597482    0.28940270701597  -10.03592035753283
C           1.80873825884821   -0.17679027362176  -11.47967367655560
C          16.11446697672467    4.58085769064519    8.55017255093896
C          15.75822050966661    4.46183921270015    7.19437060328241
C          16.71777095146625    4.09161567405566    6.21740335846151
C          18.03836065984911    3.82728643520203    6.53371404734853
C          18.39950584867569    3.96971340716920    7.88617832915083
C          17.44136306315876    4.34184899916290    8.86280631154503
C          14.48609636236384    4.68406680604124    6.62096305110682
C          14.43535727941248    4.45655098630127    5.27575296980314
S          15.99609895854183    3.98071615428106    4.62935763237201
C          19.68167012495190    3.79137459581382    8.45105245527746
C          19.72380561940449    3.96707857660108    9.80413154298130
S          18.15500854761975    4.40634809448430   10.45834137830043
C          15.09952526934271    4.95494248315119    9.54364656796815
C          19.05805281527497    3.43237062078790    5.55333309953260
C          20.88698258548499    3.80418448933862   10.60507297180409
C          21.05450114263824    3.97547837177418   11.96442553184979
C          22.35475165259600    3.71181366464617   12.37298392017794
C          23.20807331857398    3.33352395325154   11.34387024931912
S          22.35491981548934    3.29627355150877    9.82848305200175
C          24.58583648100080    3.04734954955916   11.50620948655714
S          25.22895976893669    3.12562497049961   13.12930157177758
C          26.85261574793131    2.75328333983946   12.60138975580270
C          26.88173272476911    2.58918046096178   11.21963301934317
C          25.59730579762608    2.73113039123639   10.60427230460414
C          28.08664201070322    2.32189016346015   10.45479746441302
C          27.88554444842227    2.15278736988323    9.02007634200404
C          26.59563875602186    2.25695900603952    8.40993968957307
C          25.38949950384848    2.53978316915739    9.17977851279330
C          28.88727645594973    1.89136765266099    8.11709894484507
S          28.24411843700863    1.75594699209611    6.51662430073433
C          26.62629092550437    2.05561819971920    7.05128430838942
C          27.84932284886124    2.65162978386632   13.60280635484700
C          27.61494908193269    2.78367181724162   14.96595808481962
C          28.74435811642501    2.61547491658193   15.75561257434626
S          29.53016381790308    2.31791429522228   13.30423562025640
O          29.20417020512173    2.25138927037286   10.96300871835933
O          24.28232135223010    2.59801666165931    8.64802146469364
C          30.34030710536762    1.69018188322571    8.35294251353297
C          30.63099513920440    0.28601061809773    8.88869999461465
C          25.51582282891507    2.10525103266512    6.06525904779607
C          25.13855939301936    3.54878577904356    5.72244443071808
C          29.87266156358855    2.34838795708565   15.00680184320838
C          19.28161448486750    4.21630364190281    4.40119861416990
C          20.31052633117533    3.92922386112241    3.55212878756198
C          21.17647518994071    2.84210028838154    3.80238944014478
C          20.92179749357816    2.01615045520131    4.92903552140790
C          19.85243202096041    2.33328433135231    5.78355156203477
C          13.87654851971179    4.24743071602670    9.59167541281000
C          12.87873013757206    4.63138738818195   10.43701802206788
C          13.04315768921252    5.74521091359356   11.28936611371902
C          14.28682698496791    6.43095772311805   11.28110407607996
C          15.29902170273943    6.01205481883264   10.39803992750446
C          12.02139063941037    6.18898182096031   12.14408030434416
C          12.21010614735718    7.27505785788332   12.96662846696931
C          13.44226944492825    7.95382187904500   12.96214707888591
C          14.45167282160757    7.53445860005004   12.14295117223128
C          22.28311656184936    2.55706562833801    2.98454639353839
C          23.11365178657859    1.49796244206933    3.26619573820728
C          22.85294960356276    0.67068422219715    4.37418858096316
C          21.77944459645312    0.92484430058997    5.17800321650864
S          24.53009859706241    1.28243554726375    2.22944238743481
C          24.98479092491730   -0.47878110184684    2.46945365593285
C          25.91721760848953   -0.90303974556689    1.35063772655977
S          10.83655097008051    7.77355663168454   13.96116576065227
C          11.58132597120654    8.85716468911713   15.23939197052150
C          10.56642599912110    9.08623875614676   16.34330077257154
C          34.74384765508702    1.46024707229978   14.62223874187542
C          33.49871660661665    1.71078468142307   15.22774298384079
C          33.38095818317432    1.84526718441309   16.63449058129709
C          34.46989926396352    1.74179329730165   17.48220835249129
C          35.70942515027912    1.45513316226507   16.87989280983517
C          35.82517619774642    1.31760473657990   15.47298301229431
C          32.25096734227500    1.85020655108239   14.58121464813044
C          31.21328590380947    2.12525420720825   15.42437832611094
S          31.73170088805748    2.19655849274528   17.10020128698489
C          36.95035106285105    1.26265254207533   17.52763157032162
C          37.99212767329324    1.02912100616830   16.67714378884999
S          37.47828747932143    1.00456000228989   14.99894306304543
C          34.82314901231953    1.36640357917242   13.15868493343894
C          34.40039271041294    1.90251314802984   18.94041610601537
C          39.34480554257890    0.84642603162696   17.07419207017336
C          40.45270241173697    0.55832566691132   16.30308580480408
C          41.61225428006353    0.46634727824765   17.06024244657654
C          41.42219592855878    0.68482827539891   18.41884569628695
S          39.74794027814374    1.01686192296386   18.75468213171794
C          42.45335208465183    0.63308616911466   19.38949687460597
S          44.06611709039437    0.29167816176329   18.81425072142286
C          44.75264352511957    0.35605030277851   20.41953935821667
C          43.76066711816517    0.62370179270650   21.35315493166840
C          42.46203700543494    0.78962386558180   20.77159816857414
C          43.99608729232701    0.72809183232522   22.78450020233501
C          42.80345300043175    0.99171040374224   23.58553077370889
C          41.50963896288999    1.17300782371783   23.00144377502180
C          41.28424705372461    1.09596150310957   21.56243203355990
C          42.79060208585298    1.09040220977032   24.95485257008621
S          41.19345146407196    1.42680190316279   25.52948155137939
C          40.53186064804970    1.43129627027711   23.93092584423025
C          46.15366555837944    0.13811768119413   20.51998856118642
C          46.97245324244199   -0.11646508092501   19.43327420657356
C          48.31573604429293   -0.28877168653708   19.77130971092037
S          47.08800123326886    0.15878566222389   21.99113983392205
O          45.10791092949210    0.60929406834997   23.29143806378209
O          40.17225551755096    1.27922369152255   21.07055473950857
C          43.92221436438564    0.99457312540637   25.91287704776529
C          44.66600134033118    2.32982373027161   26.01000750190787
C          39.07689566568318    1.65869701794238   23.73143238729137
C          38.32714105223797    0.33982755275680   23.52753319161274
C          48.52124081858653   -0.16506657430403   21.11509124162149
C          33.48859463747729    1.14175938353314   19.70312813254428
C          33.50729389638520    1.19407384766212   21.06662904168735
C          34.43589865000525    2.01025229505749   21.74959762340428
C          35.31672185794557    2.82137052236257   20.98627737282596
C          35.27274179000643    2.74936577345681   19.58379972353683
C          35.39290727217429    0.23432384607697   12.53817960915654
C          35.35099607109895    0.08892071753361   11.18179611854287
C          34.73914271025462    1.06530153728343   10.36482513974834
C          34.21777058642571    2.23441670985620   10.97945855247285
C          34.27818562458452    2.35876238370668   12.37740341941319
C          34.61470968904115    0.91471315561982    8.97346111085657
C          33.99624425488572    1.87851731398163    8.21098291186528
C          33.50009805638776    3.04689123655191    8.81780060323650
C          33.61558690001036    3.21684385565396   10.16730445253023
C          34.52572294270134    2.03943130149760   23.15150774377883
C          35.45122328414804    2.83727853459930   23.78303401515418
C          36.31196588025379    3.65403295927953   23.02685740111213
C          36.23860602402352    3.64539952899000   21.66385933112546
S          35.53887552774334    2.72903612079799   25.54576386081900
C          36.41225981633272    4.26387272587283   26.04289864341807
C          36.25691338075236    4.45382613928349   27.53982370727193
S          33.81241247782106    1.53840029704705    6.48569223953277
C          33.38237655503441    3.16093434530940    5.74573478191326
C          33.43506436553038    3.03811683928232    4.23461254776088
H          -3.11161167218096    4.62410531767453   -3.48642930287681
H          -5.05337422379885    5.23454456742724   -1.86020281639437
H           1.90164501292505    5.54852565401323    1.50982713353384
H           5.29807922940397    4.37299547397837   -1.68336499589319
H           7.45918994118868    4.51186211626048   -0.25470847559699
H          11.48025404463150    4.39231954627689    1.67961027364584
H          13.93294429190388    4.08568299015726    2.46403895223568
H           9.16377780082327    5.16732830363320    8.66295592731324
H           8.04465124008414    5.73036113587151    9.93091467746143
H           9.77862911741877    7.47396540089802    8.11826774601073
H          10.04085431222572    7.17620072682131    9.83753212695323
H           8.62940299111375    8.10261210439696    9.31207613132865
H           3.66343759671139    7.26309058448401    5.61701099347168
H           3.32124913504682    7.22758098529503    7.36663591514374
H           3.38186353741168    4.83349249984945    5.47365455364805
H           1.94424044398176    5.56722291136337    6.18562706647604
H           3.10571419619946    4.72709432003286    7.22147743337095
H          -2.31307577180588    4.51344139910496    2.29805980405025
H          -2.29824027255367    5.06001198689583    4.69272576859368
H           0.59463929627951    7.55592339850342    1.55919269179062
H          -1.39868885895271    6.11660276904757   -4.52480869300364
H          -1.13928371145641    5.53703443190570   -6.90094627071030
H           0.87740402172044    2.67842064564819   -3.40582678108721
H          -0.24944130828016    4.02413743404047   -8.64432407737485
H           2.08603325113958    0.62847701121499   -7.49365692944634
H           1.80364220049211    1.20916671000481   -5.14492540869467
H          -1.31897174168131    6.32322240474987    6.59096311005703
H           1.64916194343803    9.30757441753432    5.82013130177974
H           1.50626443929219    8.85644384689680    3.42756147137958
H           0.55428334426634   10.37914320383649    7.63938439161241
H           2.10641724077027    9.59772969917849    8.05914337858560
H          -0.16309258723390   10.20054975036352   10.02165482927592
H           1.35349464065778   11.10372163351883    9.90411627639176
H           1.36294800510273    9.41587436538766   10.43258295651016
H           1.21379518390154   -0.37147586876544   -9.41042109377073
H           2.83341913323663    0.34956967849356   -9.65280068022169
H           0.79181547582046   -0.21218448436904  -11.86323112911913
H           2.24493284671360   -1.17112954231212  -11.54927855552369
H           2.38691408143517    0.50351293985984  -12.10058240478464
H          13.62605279493900    5.01080528621862    7.17737432873308
H          20.55979623313554    3.55006212038815    7.87960783299912
H          20.26083672683155    4.28013695941056   12.62405455609998
H          22.68962627535680    3.79533032578019   13.39271854612404
H          26.63529101282152    2.99288442397913   15.36031373644689
H          28.74945217567997    2.68297556825997   16.82951663361860
H          30.68687690120567    2.41714510142574    9.09039056920153
H          30.88094387381129    1.83486376432820    7.41613999943114
H          30.15433865034363    0.15215278342363    9.85569369469903
H          31.70330642128999    0.15877261865337    9.01062298196628
H          30.26304520715239   -0.47086191010803    8.19937076420237
H          24.63849971898998    1.61314735575777    6.49002687542546
H          25.81852120104372    1.58670498462500    5.15378000241881
H          24.76461757593388    4.05412940599111    6.60848072350353
H          24.35745757871511    3.55103831629712    4.96705705611566
H          26.00070590545290    4.08959025042239    5.33807387961498
H          18.64303242603922    5.06755469064173    4.21740427647912
H          20.48978754535916    4.54441720630900    2.68224946289137
H          19.66373106671646    1.69765623201327    6.63711724636117
H          13.74859341529717    3.38573770681769    8.95304473656964
H          11.94343351024473    4.09134572957904   10.46267540202475
H          16.22954810443507    6.56100662701746   10.37467463885971
H          11.07343407594766    5.67106401202572   12.15289477255954
H          13.59342655077281    8.81280017394974   13.59664382936110
H          15.39657413915854    8.05886924157294   12.14054342224598
H          22.49061824456650    3.18662290016316    2.13175013166775
H          23.50580188277258   -0.15780910815171    4.59946299584951
H          21.58668560595101    0.29745593614294    6.03634470633781
H          24.06220976732878   -1.05857004255961    2.45233109576278
H          25.47424816120716   -0.58193307117110    3.43892950293090
H          25.43209096298334   -0.77935695609332    0.38527065559659
H          26.19227440790020   -1.94852861877906    1.47382146836519
H          26.82194377437074   -0.29960652844916    1.36084398139256
H          11.85961523280747    9.80082100207095   14.76866856736605
H          12.46777181010805    8.35097531874384   15.62156071002695
H           9.67285898024477    9.56148548861600   15.94525220448518
H          10.99292438609212    9.72935412589132   17.11035202862903
H          10.27980833473501    8.14078186143151   16.79765838159430
H          32.11116048918900    1.74041868822453   13.52086772839453
H          37.07933699888127    1.28183151616855   18.59484107438714
H          40.41112032423417    0.42099618765186   15.23667867373135
H          42.58062549558290    0.24403645865518   16.64586033695571
H          46.59641875346612   -0.17298335882775   18.42644692201143
H          49.09130499989392   -0.49358429558389   19.05489130528080
H          44.62023704948140    0.23287692091118   25.56055017246402
H          43.54334325725176    0.71179514892388   26.89704587231443
H          45.09896723183958    2.58063999994887   25.04549798773347
H          45.46759696077654    2.25319305183166   26.73924801692279
H          43.98871733489876    3.12524945784627   26.31439765875086
H          38.93057481940694    2.27803936215967   22.84421882626031
H          38.67004925150820    2.17140612244837   24.60491621689445
H          38.67878393838740   -0.15014013835130   22.62394129390480
H          37.26382667019082    0.53819183888590   23.42246710736230
H          38.47865445809585   -0.32273739621318   24.37693230305684
H          49.45266599210686   -0.25101179674434   21.63988681336219
H          32.79424790210532    0.49251983584590   19.19067351801368
H          32.82088089167702    0.59400335647317   21.64627971288969
H          35.94547943287915    3.37170591606979   19.01074283959387
H          35.83640442631614   -0.53193615339703   13.15659118389349
H          35.76987428691650   -0.78976793542394   10.71300902752086
H          33.87919450896950    3.25191077332259   12.83716863450792
H          34.99680248239454    0.02278101656607    8.49874581877888
H          33.01820403406639    3.80765237761197    8.22461054126301
H          33.22250609676394    4.10822878951624   10.63471881175270
H          33.86765998615493    1.41683891125130   23.73972526844583
H          37.03940561902724    4.28043668132382   23.51822053662067
H          36.90892182526458    4.26260407281200   21.08307908550894
H          35.96143796871802    5.08988145832971   25.49300450987435
H          37.46534018281722    4.16625116681390   25.77529965383847
H          35.20550720029141    4.53450961242065   27.80523574546709
H          36.76876812110451    5.36138037312979   27.85319056342569
H          36.68302697191301    3.60882231139712   28.07582899143202
H          34.10818860060981    3.88984743541335    6.10629201020473
H          32.37911669208349    3.43654645813332    6.07349724821192
H          34.43142250951640    2.74624677911361    3.91157486428331
H          33.18287755029888    3.99229910911195    3.77674585154502
H          32.72770517842591    2.28712888885760    3.89025080662913
