263
 SCF done       -479.793365932225          0.000751957017
C         -19.28326391132943  -15.78974929085303   22.47190268156477
C         -18.04995641001603  -16.17903017351699   21.89984372282738
C         -17.60354507150271  -15.73641858851896   20.65781011038016
C         -18.44247897904162  -14.82815970599065   19.98091951395645
C         -19.67976565476034  -14.44817950588817   20.54938765802059
C         -20.13019109110617  -14.89745221462337   21.78795956154452
C         -18.18078726798882  -14.13291795778377   18.77636385709990
C         -19.16501508227832  -13.25935133713559   18.40761860956529
S         -20.49686159647028  -13.28047038532555   19.54768379852742
C         -19.50844922869245  -16.44191513077734   23.71977815504270
C         -18.50130418853541  -17.26419090242662   24.07547449403734
S         -17.21080565994519  -17.31166634789242   22.92727495361887
C         -21.38627041923743  -14.42347837185852   22.32783070769508
C         -16.35505794455494  -16.17130982550862   20.07427098545150
C         -19.13969426675072  -12.41336522876287   17.26070630101365
C         -22.55244419998458  -14.16881910052301   21.65931096818015
C         -23.56710801058165  -13.62937888933193   22.46677945918928
C         -23.17437764619282  -13.45167612172680   23.76338671209569
S         -21.53781033967527  -13.97570549487130   24.00866576844495
C         -16.09673914073876  -16.50455761141810   18.77194636425092
C         -14.76587372269722  -16.88415307705675   18.53612860889250
C         -13.99434290200981  -16.83317380236597   19.66379611797001
S         -14.91459578612558  -16.32693352548214   21.04581342602326
S         -24.17177526983683  -12.81293940103150   25.04427377938213
C         -22.95348229309178  -12.69439444774784   26.40897677085063
S         -12.29584394665905  -17.21778948231460   19.74432184133289
C         -11.96204051103971  -16.94497715261761   21.52521482856085
C         -23.61279237099152  -12.08758768828738   27.63082756053251
C         -10.49910165877423  -17.20943437640456   21.81807523837160
C         -19.99176493650207  -11.39822358193945   16.87080330000729
C         -19.53022054152962  -10.78915444539662   15.69123389044626
C         -18.34835006068840  -11.31787694853111   15.17196658362531
S         -17.77926372827154  -12.61964977158915   16.15275830689168
S         -20.08563122203132   -9.46083060032982   14.74621614058955
C         -18.70396451532999   -9.61662419185448   13.67133517027551
C         -17.88192971799289  -10.66491071823894   14.03312685238960
C         -21.25742910875825  -10.96647863023700   17.53774926657968
C         -22.43959454169392  -11.81606333912004   17.06814566612132
C         -18.47815693759772   -8.68432498008707   12.60902635333266
C         -19.30536904723749   -7.59867028550994   12.34366365070412
C         -19.03530932393813   -6.61482992966784   11.38538812241578
C         -17.90041313440147   -6.61661699852349   10.58388516454706
C         -17.06471775156170   -7.75041819981181   10.77483097674774
C         -17.33697070147592   -8.76298179823447   11.76041881884363
N         -15.95126654162183   -8.00242886146751   10.09592595925539
S         -15.30483446025269   -9.37350629917279   10.62956122316551
N         -16.40418545701245   -9.71190158344633   11.75307205281098
F         -20.43510680948086   -7.43210135589307   13.05733407433324
F         -19.93727210982812   -5.62073552512683   11.29182811230008
C         -17.52582893838948   -5.57172623610972    9.68093088870108
C         -18.17315394190442   -4.37804515397889    9.42869077356205
C         -17.43891512542023   -3.56669472491777    8.56535523288920
C         -16.23402626024449   -4.12693325819683    8.14168239241315
S         -16.00625764811377   -5.70238252141069    8.81267124504319
S         -17.63103948529548   -1.97176317234479    7.93237148770821
C         -16.06457010578331   -2.07808048228645    7.12630465698055
C         -15.44584968032250   -3.29870548285812    7.32601317062049
C         -14.13112737856452   -3.75551347981377    6.78073967869408
C         -14.28391559519997   -4.30583559018504    5.36202668399610
C         -15.49830908024462    1.32752914893232    5.79006617103927
C         -14.28365629085309    0.83965847067469    5.25165248008376
C         -13.36521555678794    1.63633366008525    4.57574338664430
C         -13.65243775869069    3.01834955806222    4.54612757357748
C         -14.87367927952012    3.50471776137605    5.07024441643512
C         -15.83850018490353    2.69094959805904    5.65670345850044
C         -12.83668699845468    4.06202813502500    4.05503516643223
C         -13.39631789883926    5.30607347310130    4.14907627019288
S         -14.99506406440433    5.23087396839711    4.86392296413801
C         -16.21639028239879    0.31490512775308    6.46583159000058
C         -15.60737457955325   -0.90947401461584    6.45305833390505
S         -14.10940726736534   -0.86638836834211    5.54627290043543
C         -17.11921568257676    3.21385986019593    6.07561405179762
C         -12.19902803044445    1.09980134872643    3.91613912397464
C         -12.78817216029915    6.51989239491772    3.71821828180813
C         -17.40958230032074    4.43601001067170    6.61645418281822
C         -18.78107756931028    4.65454959077512    6.83786463346123
C         -19.55144038437160    3.59579411777067    6.44910821911126
S         -18.58929370619551    2.30075116266684    5.81577421296058
C         -11.63511506424251    1.49875434164652    2.73235051416045
C         -10.52742561223935    0.73113424273782    2.34128939357888
C         -10.23477295482013   -0.26568140777187    3.23005874736317
S         -11.33170796890551   -0.26299008864085    4.57555249185613
S         -21.28111548861215    3.36905311459540    6.50127052434190
C         -21.83848279123745    4.96264604258324    7.21475630235556
S          -8.92554705690691   -1.40641598832152    3.08440043060849
C          -9.36511504143878   -2.60137683383564    4.40321805743389
C         -23.35016903858985    4.95030818823717    7.33148966370486
C          -8.42040556158802   -3.78518105826126    4.35695054670659
C         -13.21496097328190    7.83052543642615    3.81214352122430
C         -12.29063866695326    8.69802480666740    3.20526661573054
C         -11.16378185199868    8.07985236745248    2.66299521291566
S         -11.22781612589936    6.37207902312279    2.90236700871193
S         -12.25206564362001   10.40003778987695    2.94204107809462
C         -10.72519682636444   10.25747569305588    2.08278867190554
C         -10.27783440139495    8.95248963154082    2.03603910839768
C         -14.48984387206428    8.33030872383286    4.41069463213008
C         -15.61426288444177    8.33498955335941    3.37362389294727
C         -10.12562505922926   11.38723445668747    1.44068084304061
C         -10.67667830119405   12.66266259601709    1.44844910717343
C         -10.19526461710883   13.72476037580349    0.67638033907516
C          -9.11077262080985   13.62596127552679   -0.18669252991862
C          -8.43873544237727   12.37059837384472   -0.13069810347870
C          -8.93683413163568   11.27467285227407    0.66321209165761
N          -7.32767127859372   12.03974153419583   -0.78199172494835
S          -6.93897490286620   10.51946452719294   -0.43562507555462
N          -8.16468520759718   10.19775848048937    0.55200888998562
F         -11.76979488503922   12.91529474282384    2.19244552034361
F         -10.87871738902125   14.88128887164886    0.76270234793081
C          -8.75707344436007   14.63595211707268   -1.13662135624396
C          -7.76102792190730   14.55474382096107   -2.08929833921978
C          -7.82218228614751   15.61364767766581   -2.99158599486029
C          -8.84583824317497   16.52689835451033   -2.73605010561946
S          -9.73680967886221   16.08301759267144   -1.32979949663614
S          -6.99937063796186   16.01267789150290   -4.45582445074973
C          -8.09875713895665   17.36825752013356   -4.73333208534700
C          -9.01009057042674   17.52986753907022   -3.70600203945714
C         -10.04591198887231   18.59882598739481   -3.57553867004873
C          -9.42415894874147   19.91560719373479   -3.10795748297627
C          -7.41436301888309   18.30897928346558   -8.24013083937956
C          -8.48207004251540   19.23074101007625   -8.12825770688963
C          -9.03417261056693   19.90471199547692   -9.21025116222793
C          -8.47552802701656   19.61703918569603  -10.47267253327501
C          -7.39608604762058   18.70743346744282  -10.58416661415649
C          -6.81541244629197   18.06323988209961   -9.49550486260043
C          -8.86424184763937   20.13020179767430  -11.73032192673858
C          -8.16691625149546   19.61624430099589  -12.78859209365573
S          -6.91771223714066   18.51106654154176  -12.24825438926898
C          -7.17501779652269   17.64046715025522   -7.01913259956848
C          -8.01116334678979   18.01055395828684   -6.00097387193606
S          -9.10332578189243   19.28534032993915   -6.50255273609354
C          -5.67086277329812   17.19483692480214   -9.64397552799968
C         -10.15793635742010   20.80372505791992   -9.05883737177553
C          -8.46970778631309   19.83961236358270  -14.16277551159542
C          -5.34947765580676   16.35404373006698  -10.67589041982757
C          -4.12264736217836   15.69225446813438  -10.51185014581151
C          -3.48451643569455   16.03607560777725   -9.35231327513103
S          -4.40575984060291   17.18637257867700   -8.43819624082015
C         -11.28020093937991   20.90627137278265   -9.83212363753359
C         -12.19773157943580   21.87303935321973   -9.38149601569616
C         -11.76846895864136   22.51966188586643   -8.25811403630156
S         -10.22219277077962   21.93740221778478   -7.73098899726886
S          -1.94067637056938   15.42223679589067   -8.82377058328492
C          -1.80915772754046   16.19137110418632   -7.16538822127584
S         -12.52822754481387   23.78137922469367   -7.32126525776402
C         -13.92631548536837   24.24724079970538   -8.41264695738234
C          -0.52251355569407   15.75013999536072   -6.49748885277597
C         -14.62821678705770   25.45956320077929   -7.83282109012611
C          -7.92398370163370   19.29280138296990  -15.30878451441657
C          -8.65173146202516   19.69000589050972  -16.44385254259616
C          -9.73578646547583   20.53060894201340  -16.19081332603994
S          -9.86404931521844   20.87082966735299  -14.50344265471216
S          -8.55219381445089   19.29410805644475  -18.11766140507420
C          -9.99202214639664   20.24451731548323  -18.45454967606163
C         -10.48812155310298   20.85112742031979  -17.31848980795775
C          -6.71954306039809   18.41342875104258  -15.40607250102085
C          -5.43055020250930   19.23174892910405  -15.31838614923736
C         -10.56922944284375   20.28125976068858  -19.76487770702736
C         -10.06050317644487   19.58332582814520  -20.85181996472834
C         -10.66924708246510   19.54432211069000  -22.11197358082412
C         -11.84981531258295   20.20375003465114  -22.42491217533900
C         -12.38454097705044   20.97248026603180  -21.35137148196596
C         -11.76030360084748   21.00932666831562  -20.05135158361515
N         -13.48446204288160   21.71975013206098  -21.38817949629428
S         -13.71567988213169   22.40051828392346  -19.95266733966717
N         -12.43532343640697   21.78199996978476  -19.20503654863582
F          -8.92557089796839   18.87174163159198  -20.72031161515632
F         -10.04820651164855   18.79900543108970  -23.04498933488082
C         -12.50220077127663   20.11017472564620  -23.69828776568164
C         -13.65646678309954   20.75510436259631  -24.08644093402079
C         -14.03589862190744   20.40387930801370  -25.38377394153753
C         -13.18359730224666   19.48998568621507  -25.99984651413087
S         -11.87887529835577   19.06106975011453  -24.96425815436342
S         -15.34983517288548   20.82585755803709  -26.42845984407921
C         -14.72397456348009   19.76832835234318  -27.65132478482204
C         -13.57917538538351   19.11755538229511  -27.30597115406540
C         -12.82100977720854   18.16547884599714  -28.17335722287897
C         -11.49553985947134   18.77665404987290  -28.62828473652192
H         -17.26954814230421  -14.24015366368978   18.21651918131216
H         -20.39413121433441  -16.30690129496628   24.31241827992746
H         -18.42354534547670  -17.86762907188784   24.95855667302818
H         -22.69194776811004  -14.39316498771293   20.61739527753651
H         -24.54944349859081  -13.37434977300450   22.11498711698322
H         -16.85596240872431  -16.51821700206526   18.01057504841263
H         -14.38233439031989  -17.18647480374668   17.57922174846008
H         -22.12788958223794  -12.07667706244715   26.05392818786848
H         -22.59196926519655  -13.70340994508910   26.61144696236556
H         -12.61013530419848  -17.62098407883931   22.08411799589061
H         -12.23236269185688  -15.91295138273327   21.75097996017917
H         -23.99360914376797  -11.09462802628010   27.40389765890101
H         -22.88813592918341  -12.00868403433051   28.43796483911855
H         -24.44189294894835  -12.70717827258453   27.96386891516723
H         -10.23813650068540  -18.23371455041964   21.56319760424709
H         -10.30229353420874  -17.05083771656129   22.87596168753761
H          -9.86784280151321  -16.53862534942353   21.24022255437659
H         -16.98882925717424  -10.91751875229906   13.49500492409860
H         -21.44071875110436   -9.92176221783595   17.27628678946869
H         -21.16157673807868  -11.03869806973754   18.62196177396105
H         -22.56688117449041  -11.72243543912913   15.99207388923951
H         -23.35243070904930  -11.48652577446310   17.55675276817217
H         -22.27577657528024  -12.86344953289048   17.30933765616128
H         -19.11657866046592   -4.09644708857781    9.85472703269916
H         -13.75325743177944   -4.54603931659604    7.43317555701337
H         -13.41197164228086   -2.93492010764913    6.78029401383901
H         -14.98467942557784   -5.13744282798495    5.35496516024992
H         -13.32391266870355   -4.65697096632088    4.99274596307612
H         -14.65228033896298   -3.53466711879820    4.69028484528679
H         -11.84227171282330    3.90944817025184    3.67680005041717
H         -17.14053091250281    0.48523046207132    6.98732869579332
H         -16.65914398058344    5.15495496205971    6.89049871689926
H         -19.16680280424508    5.56072369003447    7.26621130802397
H         -12.04136882652984    2.28847118234895    2.12664223082182
H          -9.96954043762634    0.89032776688719    1.43711889923641
H         -21.50017639781514    5.75710826437109    6.54977330135156
H         -21.36825816332104    5.06715788598497    8.19246340859881
H         -10.39730539119046   -2.90684462759135    4.22872177359578
H          -9.29842541831287   -2.07513123201268    5.35594805331229
H         -23.80655109782303    4.82312509695883    6.35265021607742
H         -23.69498131527109    5.88904754202571    7.75918656112820
H         -23.67526331079610    4.13378860525575    7.97167322345580
H          -8.48460746236682   -4.28609801247743    3.39394671604627
H          -8.68201737480420   -4.49437541645177    5.13894778936859
H          -7.39388207115434   -3.46015210083953    4.50859021101653
H          -9.36214491573627    8.66664979379004    1.55591150678271
H         -14.32334477953184    9.35106299924936    4.76269066334459
H         -14.77770531626413    7.71339348613570    5.26264949709834
H         -15.34596540255852    8.96801378827742    2.53091346012085
H         -16.52952285843701    8.71685695148649    3.81764607824976
H         -15.80057434660989    7.32793625328950    3.00869324875294
H          -7.05991578438370   13.74389539168877   -2.13173395214493
H         -10.78551199043451   18.26766702332221   -2.84308661803566
H         -10.55344583536882   18.75440285814379   -4.52907187691794
H          -8.93801667784006   19.78204781543059   -2.14409441505515
H         -10.19431218399513   20.67535768894464   -3.00764230449501
H          -8.68595185939878   20.26625006103030   -3.82476593935287
H          -9.64302232312893   20.85931155546226  -11.85782792756376
H          -6.44987389272260   16.85646745075582   -6.89834398443467
H          -5.99793870709002   16.17834351639451  -11.51464067831203
H          -3.71773204287057   14.98592182277847  -11.21257963211949
H         -11.47484593517577   20.27113172874401  -10.67763691876680
H         -13.13445104255011   22.06367300048926   -9.87137924947729
H          -2.68287926824210   15.87818103470135   -6.59273496438802
H          -1.83411894928973   17.27264898455653   -7.30508070341475
H         -14.60100388886267   23.39319203368131   -8.47052310497049
H         -13.51117565882716   24.46302185935778   -9.39671572833790
H          -0.50215083050813   14.66854730550010   -6.38677369209769
H          -0.44671601086635   16.20436558762908   -5.51217320610558
H           0.33782209591676   16.05283881792471   -7.08964867691417
H         -15.01758675816487   25.23638925923236   -6.84271494816355
H         -15.45517643344479   25.74976542478390   -8.47664397802861
H         -13.93809649825070   26.29560069808090   -7.75104521626166
H         -11.36181061845730   21.47349246841564  -17.32384530721523
H          -6.75359697528077   17.89512051630642  -16.36689282372431
H          -6.73145301826332   17.66559409860998  -14.61156559770866
H          -5.39690055939808   19.96918621617413  -16.11707614329010
H          -4.56767829831840   18.57801162393705  -15.41189303046653
H          -5.37029250748231   19.74909844645504  -14.36420219491584
H         -14.18627680571480   21.43775955294663  -23.45077816899554
H         -15.26106655039558   19.68638989172283  -28.57601139571883
H         -13.42773915735548   17.90499713187024  -29.04208960071707
H         -12.61876206315297   17.25378104212129  -27.60563593430386
H         -11.67317762889597   19.68544587865619  -29.19916955290848
H         -10.95315043684058   18.07290101798162  -29.25445907709312
H         -10.87694883361568   19.02193475000563  -27.76832115726616
