143
 SCF done       -255.396871337430          0.000632195004
C          -4.29974579545401    2.28043845112972    4.06801125149202
C          -4.18549120723703    1.26801739006782    3.10196012225552
C          -2.91340062314580    0.77410234951979    2.69546901408697
C          -1.73005249843988    1.28751444161243    3.21582602687437
C          -1.85118162497615    2.32252358749604    4.16226889379504
C          -3.11714804951613    2.79179186557082    4.57248666879818
C          -5.24747881181245    0.63848329954434    2.41185002095037
C          -4.83666544595102   -0.31390232495079    1.52231025567231
S          -3.09879853580732   -0.48759778297433    1.48832074396819
C          -0.79400788430821    3.01239398782667    4.82494131870336
C          -1.24056328812627    3.95068674963348    5.68392526097591
S          -2.96904466650837    4.06332289280896    5.75212560224054
O          -5.51487147013559    2.78635373700160    4.45966533652385
O          -0.45751090459913    0.92570721037897    2.93424170216679
C          -5.65850299326241   -1.10340653420820    0.67567310590461
S          -7.40476114478636   -0.93403018923550    0.69315858856837
C          -7.62935440347301   -2.14288250996143   -0.55845850878235
C          -6.40277301456210   -2.63787993376639   -0.94099287198801
C          -5.30891301437893   -2.05517851357804   -0.24940408339326
C          -5.86118157519022   -3.61778130361958   -1.88967428887425
N          -4.48172003321781   -3.56688739959592   -1.71125225052169
C          -3.55858712278460   -4.36389099876693   -2.48885375615019
C          -3.14111506546927   -3.63842263134925   -3.76350677817889
C          -6.27137764890162    1.96023501139723    5.33402625447209
C          -5.64190993323727    1.84089564199803    6.71720202391441
C          -0.17428943517396   -0.06881315323142    1.96557254061621
C           1.33847393828286   -0.20222154068840    1.88797104607926
C          -4.06976556117339   -2.65440655561067   -0.74844853684895
O          -2.91855311636955   -2.45750074039561   -0.43469134269892
O          -6.41333429338888   -4.35141381954881   -2.67576368930047
C         -12.75194159453952   -2.35084366433931   -1.55597403485389
C         -13.39861090173819   -3.10721294844138   -2.54982633006869
C         -12.67403725397223   -4.00661493185467   -3.38240272414474
C         -11.29805608176716   -4.17012474396538   -3.26324306441931
C         -10.64786552128512   -3.37564287685163   -2.29234841989069
C         -11.38087886825580   -2.49317750303713   -1.46297661365065
C         -14.77110362957390   -3.06329198436631   -2.88212461034219
C         -15.11077850581309   -3.88409905472194   -3.92209987867534
S         -13.74367963344095   -4.77322587777897   -4.54394915939292
C          -9.26205578610208   -3.33628694763906   -2.02557241414794
C          -8.93031076990763   -2.45074692071423   -1.03607130125482
S         -10.33831595917343   -1.63362436878554   -0.36998848903948
O         -13.42599002899934   -1.45923377166939   -0.75951825838197
O         -10.48382719793505   -4.98265980974669   -3.95841556984839
C         -16.39599772669327   -4.03685468897604   -4.50639982505455
S         -17.79839742178824   -3.20782862871934   -3.85553096485632
C         -18.87009977526997   -3.85959354647177   -5.08140785851927
C         -18.15257060891942   -4.66968698460797   -5.93273219113340
C         -16.77639428572008   -4.76960253621695   -5.60287501642525
C         -18.38616578968546   -5.49130925611087   -7.12740910819824
N         -17.14427852583638   -6.03874691701690   -7.43612363597605
C         -16.92331391216350   -6.89929106764394   -8.57785671992705
C         -16.48070402326470   -6.09666976207956   -9.79643266143090
C         -14.20283742811982   -2.03282351181952    0.28374585829103
C         -13.34227870313437   -2.65482040119282    1.37742669136630
C         -10.98012855689453   -5.86483117462712   -4.95037721054696
C          -9.79364842421620   -6.66296532318059   -5.46676968472318
C         -16.12782711613952   -5.65653099247241   -6.57117324513628
O         -14.97902901847974   -6.02543841202157   -6.65113303137744
O         -19.39395610791563   -5.70501270243276   -7.75878719162692
C         -23.63468687877596   -1.99323211063541   -4.04462700157449
C         -24.81759424856080   -2.17500971762283   -4.78739053068025
C         -24.80385203430837   -2.98293191751098   -5.97319564960788
C         -23.66216467987000   -3.59923479552963   -6.45873341893280
C         -22.47588420217906   -3.39048393120032   -5.71778100122678
C         -22.49296146949209   -2.60585988166300   -4.54948085720998
C         -26.10214359481508   -1.63128785771198   -4.54317424753506
C         -27.04892051470771   -1.99218383334243   -5.45843297105490
S         -26.40355924077580   -3.04216574089423   -6.69554721149212
C         -21.19241487039499   -3.90479789670932   -6.00148074888823
C         -20.24993986523785   -3.52123556145494   -5.08488407714676
S         -20.92120428325378   -2.50341296970573   -3.81913757444393
O         -23.43772817742275   -1.27672883081024   -2.91554814216546
O         -23.50334072244749   -4.38042822151666   -7.54699017397311
C         -28.41496627078193   -1.59954202710022   -5.47014961845153
S         -29.49423907424583   -2.14074938280482   -6.74271114941274
C         -30.84251339984187   -1.29784636466722   -6.07268148308502
C         -30.48319366594972   -0.64211246484048   -4.94193514334663
C         -29.11283994582211   -0.80392864481490   -4.59023980688895
C         -31.12112049753912    0.22158001209494   -3.93283361869690
N         -30.09794419415156    0.53067402534073   -3.04245433774596
C         -30.30334621194159    1.34209287977082   -1.86189832238355
C         -30.71338942774091    0.48632706512217   -0.66840927705824
C         -24.49175452506104   -0.93104236486181   -2.03042226387248
C         -23.86058587149659   -0.63342564758276   -0.67843967411353
C         -24.57003215552780   -4.66116879502513   -8.43254417636077
C         -24.00595213044903   -5.54056957052065   -9.53753791629421
C         -28.87285327839709   -0.04333770587411   -3.36033284035637
O         -27.86341180416239    0.11016685851530   -2.70944724532701
O         -32.25585180701836    0.61388276622761   -3.84212719142676
H          -6.28204410783153    0.90211084619619    2.54518686576304
H           0.24167139389983    2.79354309428782    4.64280603759292
H          -0.66224472239765    4.60744977976177    6.30365589979432
H          -4.06232247887778   -5.30235703565441   -2.73293471292589
H          -2.68709590241749   -4.56009506608072   -1.85957755497112
H          -4.01281664634950   -3.43541700450029   -4.38142475598623
H          -2.44694791759453   -4.25436874082440   -4.32821274153829
H          -2.65465050924200   -2.69751226089047   -3.51658499575318
H          -6.40320135748014    0.96066382847886    4.89916862446725
H          -7.24444263978575    2.45284793088195    5.39722989641209
H          -4.68465101907844    1.32667913665290    6.65579427962195
H          -6.30123027308070    1.27746556049913    7.37175485875417
H          -5.47846681391889    2.82940682683970    7.13889634926956
H          -0.57792464706025    0.22455612012487    0.98947952216644
H          -0.62343643699292   -1.02538695291676    2.25767255736554
H           1.78158042944532    0.74672802555256    1.59813479978920
H           1.60004403367119   -0.95837764699640    1.15421834748088
H           1.73722368720728   -0.49005913326255    2.85695866016601
H         -15.48077964612614   -2.41748292591025   -2.39555681840314
H          -8.54228776749770   -3.93450987594891   -2.55449235053021
H         -17.86410291216741   -7.41606749431175   -8.78159679049234
H         -16.15243723194333   -7.62223718953328   -8.29969683300230
H         -17.24305945633060   -5.36850483832643  -10.06401736136147
H         -16.32201073030592   -6.76359743184554  -10.63909143495017
H         -15.55097002234782   -5.57444030086833   -9.58262832080937
H         -14.89179299818671   -2.78570922493182   -0.12099177547706
H         -14.78188619990733   -1.19633959187711    0.68153301117655
H         -12.78570875680647   -3.50435805392859    0.98624044111071
H         -13.97552943881934   -2.99579024881443    2.19179251329676
H         -12.63530788727141   -1.92156437798015    1.75725114138768
H         -11.44268430143073   -5.29884887937777   -5.76760514476425
H         -11.73256302593808   -6.53636968064652   -4.51984881665113
H          -9.04657772497695   -5.99070350919653   -5.87902414228067
H         -10.12378146550872   -7.35181834819281   -6.23828037452704
H          -9.34023758743141   -7.22263646242559   -4.65343904832488
H         -26.34927094989612   -0.97379549597622   -3.73314705830798
H         -20.98132642461339   -4.53240742241548   -6.84822960920676
H         -31.79816950743546   -1.34333559406879   -6.55487623778841
H         -31.08656340453503    2.06656756364711   -2.09706304693681
H         -29.36472954249038    1.86155307044991   -1.65436674386399
H         -31.64215086967237   -0.03688037355402   -0.88401608014295
H         -30.86147469063038    1.11724947123916    0.20329542726979
H         -29.93848449629906   -0.24369396158950   -0.44539449371376
H         -25.20153348575466   -1.76141493193323   -1.94401456769182
H         -25.01843469889618   -0.04169272436032   -2.39553208086437
H         -23.35182331720315   -1.51520155230337   -0.29795040749630
H         -24.63184821785774   -0.33177047783848    0.02388330456494
H         -23.13415486157970    0.16799545962343   -0.77920581172678
H         -24.96905496221839   -3.73066003762603   -8.85539410015113
H         -25.37691016805273   -5.18531886601281   -7.90499643782428
H         -23.20045311786359   -5.02052309815408  -10.04810839432453
H         -24.78771241018699   -5.78302598802054  -10.25100379425860
H         -23.60741837165632   -6.45763066289559   -9.11327503756177
