242
 SCF done       -425.068929566554          0.000603596135
C          -2.54952902157738   11.80349032577600    5.04766005416342
C          -2.96501942481174   12.84607613354346    4.19925413106480
C          -2.11662809359492   13.29680310122731    3.16036087015616
C          -0.86033235405978   12.75400557476014    2.90814198854394
C          -0.43766714346478   11.72165366007261    3.76573510153921
C          -1.29119814961763   11.26392482130656    4.79778427883416
C          -4.21228383909547   13.53690372040407    4.18967951674525
C          -4.29604665294734   14.45844467016651    3.20904359942884
S          -2.87736989104929   14.55696824310107    2.22824092423078
C           0.82012249597297   11.06710257741406    3.78975032386856
C           0.93398936472111   10.13471054274650    4.77633217707131
S          -0.52677320355625   10.00953511996766    5.73692972565967
C          -3.35746171169699   11.31346605793856    6.14744944730769
C          -0.02215523799266   13.20682387857321    1.81630618938143
C          -3.50325990084238   10.02113505077750    6.56544974058216
C          -4.31277726312529    9.92407932430852    7.71367057085545
C          -4.78767442331894   11.10621276569866    8.19774238067948
S          -4.22162459083919   12.40129762205708    7.20013941757707
C           0.70437288921036   12.44362311266807    0.94651988100125
C           1.39847941546475   13.23121277583367    0.00806481758394
C           1.23664575006925   14.57819527774088    0.14185316246055
S           0.17167762633510   14.90199866855868    1.46605106313497
C          -5.63494336713847   11.34391498056438    9.39941691763953
C          -4.86430422926709   12.09007828438187   10.48954732244982
C           1.81002936202248   15.66838831392625   -0.69517419444617
C           0.72330259601650   16.38174401383408   -1.50082038769783
F          -4.60150375437216    8.74048452201177    8.28563204841321
F           2.17148672184581   12.68557001046793   -0.94927597642056
C           2.05929281443574    9.31383608092211    5.07716591266556
S           3.52646350499143    9.42906141019096    4.14521258907430
C           4.30974216163442    8.20732511039814    5.11392584083034
C           3.44379704148583    7.73886689739744    6.10806938102282
C           2.18394999490430    8.38090555964572    6.06688691088007
C           5.65762615385462    7.90367917376129    4.79405985464591
C           6.37770334295386    8.53631168162253    3.78778849797988
C           7.69653709177232    8.12458448857598    3.68147365831057
C           8.02272023587887    7.15142338497950    4.60847809831122
S           6.65654601214917    6.74408704441635    5.61275777637117
C           9.26393908216285    6.50497085795542    4.87278039384130
S           9.36505287034676    5.59787959889300    6.35594663276344
C          11.41073521534258    5.60829030546761    4.80525673077040
C          10.44579054723966    6.39671268885289    4.14226808516268
C           3.78893919133026    6.70879395509531    7.08168297502305
C           2.74067639426294    6.38997978720453    8.12889550973488
O           4.85610612500821    6.12231637477313    7.06971747863409
C          10.72383420778767    7.00068742400738    2.82444222617745
C          11.54095478875267    6.14078584823163    1.88057824846644
O          10.34414057877637    8.10288083263069    2.49699334123488
C          10.90005273159806    4.77323167732127    1.65321172095369
C           3.22883291667377    5.32799454591840    9.10466386390790
C          12.15715648533580    2.41737357044599   10.06842556674999
C          12.29685162558252    3.11662406847430    8.85381278040702
C          13.55682482447397    3.17462650000359    8.20932231263359
C          14.70307461986757    2.56599902347966    8.71065938471980
C          14.56486948761454    1.87748303388924    9.93306649571942
C          13.30005081655016    1.80302637966519   10.56664791807410
C          11.29130305590975    3.78143743716185    8.11023963628455
C          11.74325903725995    4.34100680007945    6.95220138931349
S          13.45540591986435    4.05912541664990    6.71016460771396
C          15.57672412637555    1.25975062328307   10.70758837904356
C          15.12025325723148    0.71520167961980   11.87289520280302
S          13.39585131729187    0.92944286935216   12.06975592359941
C          10.88823746947657    2.36984881258746   10.76722411365265
C          15.95970587527187    2.63690690319515    7.99316187393134
C          10.00081492530945    3.38825079141427   10.97146755860360
C           8.87459769621995    2.96642275276832   11.70422841804172
C           8.87088295349124    1.65208728428606   12.06602556533588
S          10.31261492407165    0.89111388249350   11.48750188934177
C          16.46856071448061    3.69321023228605    7.29164491054999
C          17.69522256643247    3.37944553771238    6.67535312395140
C          18.13908550811695    2.10515217891932    6.86682869990173
S          17.00987237745097    1.25046230593919    7.86071374120543
C           7.82293344690537    0.89953252384388   12.81011635979370
C           7.11856227687536   -0.11754449479921   11.91085876490286
C          19.39557978400456    1.47495996013861    6.37424058309812
C          20.33380961487955    1.11796556291671    7.52781321848841
F           7.87921973409822    3.81033210359803   12.03294955640152
F          18.37841768869365    4.27968606824633    5.94513468950767
C          11.00042389113372    5.11578864858392    6.01593573738312
C          15.88647583104198    0.07256116306081   12.89176926937872
S          15.11442801443339   -0.74841844518376   14.21758934547967
C          16.64471358261460   -1.11863114957696   14.96237629539150
C          17.69957546083874   -0.62914171321715   14.18736896275679
C          17.24774747066757    0.02728243105289   13.01947562119479
C          16.61168691079076   -1.84823339290009   16.17999967121114
C          15.47926157817497   -2.47652724441979   16.67847344550028
C          15.66691780291873   -3.08910890919578   17.90879470731321
C          16.94901308865040   -2.91972247398580   18.39091950791614
S          17.94164002140768   -2.02316860774333   17.28214250497812
C          17.48774049470715   -3.31691024090733   19.65103849721994
S          18.67877102511241   -2.29035329575173   20.38552189561099
C          17.86208481327438   -4.34401022163616   21.70180220600469
C          17.15465850429785   -4.38160977063149   20.48090328626362
C          19.10904642189660   -0.77406724838371   14.53859676378860
C          20.10945758047907   -0.45980131013878   13.44319944643330
O          19.47842618568584   -1.12003528651288   15.64524291763479
C          16.25680560880489   -5.48493020871374   20.08834106652207
C          15.57485337429349   -6.21642200796916   21.22762305537250
O          16.07314262346685   -5.79887664518223   18.93354303679255
C          14.68404850870802   -5.27655046835659   22.03888386837357
C          21.53001151211529   -0.81151666401137   13.86355481308940
C          21.79936950944278   -0.69164314575181   24.78869918183034
C          20.98021147827059   -1.73485795062229   24.31359764452304
C          20.63657137857043   -2.81070621681946   25.16692481324478
C          21.04778854904195   -2.90007099389725   26.49367803198180
C          21.83169434610614   -1.83427752216705   26.98138220271905
C          22.17618457284199   -0.75877742124904   26.12504061952828
C          20.34012596722865   -1.83242642308062   23.05368308038965
C          19.54394202605572   -2.93135214881910   22.92487615007490
S          19.56717962060117   -3.93071671314231   24.36418487294848
C          22.38373710930537   -1.67140533964367   28.27532972418346
C          23.09527642154469   -0.51591425957063   28.42745459600404
S          23.14651234540827    0.42469969430812   26.95414101621928
C          22.22221158143092    0.38223179415774   23.91420246234821
C          20.64487903075024   -4.02408117119759   27.31416071296191
C          22.63211606662744    0.28631504140412   22.61276566669003
C          22.98414147485583    1.53870139555508   22.07755559692366
C          22.85257883475228    2.59628754249151   22.93006175011385
S          22.27489325950164    2.03601629095284   24.45862540309533
C          20.52607429015701   -5.33126730420000   26.93347622619419
C          20.04716898175177   -6.14735641686156   27.97611456696184
C          19.77539636697342   -5.50392719744828   29.14632860551867
S          20.13873086089497   -3.82164124755928   28.97073319309555
C          23.10276138155432    4.03747763294537   22.65108178211005
C          21.96965128580056    4.66352169085224   21.82411886909327
C          19.28736079526816   -6.07791123764998   30.43115964118459
C          20.35880243179715   -6.00232715728835   31.52000380499173
F          23.43354516155779    1.67810429108417   20.81658942492090
F          19.86661130994000   -7.47171344256885   27.82120579681882
C          20.64429149274774    4.66513667789990   22.57416147207431
C          18.72328613681105   -3.28437706976016   21.81494525806986
C          23.73079216712094   -0.02676402289446   29.60744090605461
S          24.46616356935995    1.54658001090571   29.64310940985317
C          24.88167896788231    1.38161204476943   31.32326957320729
C          24.48574606171962    0.13930136564617   31.81316714172808
C          23.84200416411693   -0.64029360101888   30.82933258734999
C          25.58525475151599    2.45824318520145   31.93823705856119
C          26.27473998211082    2.52654892211050   33.13017768733330
C          26.86165862271061    3.76864529073193   33.36838898721125
C          26.63795075015787    4.68899920221655   32.36804849344514
S          25.67686396917825    3.98281280670780   31.10034571253001
C          26.99963027048391    6.06830716124012   32.27184716120168
S          26.06290578288612    7.06627451408687   31.19765023476981
C          26.94854519350227    8.46687765149072   31.64563922585592
C          27.89589025081154    8.19448707679475   32.57318441531453
C          27.95380742619832    6.82275947915540   32.94489690056778
C          24.61285637021810   -0.31872188891872   33.21118261763476
C          24.84680888479148   -1.80585284227923   33.39284147049978
O          24.52971472994382    0.42737705186651   34.16060676182816
C          28.98716507949268    6.29321466165467   33.85276339516614
C          29.62554991260741    7.32042257865881   34.77242083814352
O          29.33268444713050    5.13259320435681   33.85959975550933
C          30.45767829297575    6.65645884892014   35.86157531530259
C          26.08939407112139   -2.27934640784623   32.64114545642581
H          -5.00954889215147   13.33857255022097    4.88119881817199
H          -5.11993887324640   15.10736849939739    2.98533282320562
H           1.62822603349827   11.29760669170404    3.11989266831107
H          -3.08705637123701    9.16529114547240    6.06818202555820
H           0.71546648105511   11.36954630083152    0.93785345031906
H          -5.97056623056290   10.37603115196732    9.77789296024623
H          -6.51523989189778   11.92763022015288    9.11745834158511
H          -3.99268596228432   11.51716141128060   10.79751907313776
H          -5.50056343465503   12.24729026656712   11.35645224112075
H          -4.53090345404058   13.05770005630001   10.12074404322273
H           2.54768232050949   15.23070242893448   -1.37114662364174
H           2.31744273821870   16.39367546125468   -0.05388082336256
H           0.21957058816497   15.68038027402549   -2.16195055102230
H           1.16243449716811   17.17270179653925   -2.10301688230801
H          -0.01496560417321   16.81919368031984   -0.83231070987640
H           1.37589793064281    8.17023927606086    6.74336903701430
H           5.94168878267038    9.29453664904021    3.16025256772361
H           8.39648741161296    8.53568632951928    2.97871362473952
H          12.40230440164903    5.42900026700572    4.42926307570056
H           1.83764407225170    6.04563129414085    7.61889225393641
H           2.49410444541112    7.31058109955140    8.66316762480121
H          12.54600229937990    6.01723227320600    2.28852369954183
H          11.62319306340231    6.67927062808875    0.93465669719894
H          10.84738612935354    4.20599213165390    2.57943542314811
H          11.48417893383000    4.20532617973862    0.93305936388068
H           9.89157232504617    4.88942935798122    1.26226169371410
H           3.47376620552994    4.41259288567615    8.57221919007314
H           2.46135968841742    5.11269068277059    9.84364991631160
H           4.12569728463835    5.66837935542810    9.61573554010524
H          10.25902060075311    3.82900211458485    8.40418124338272
H          16.61011832634001    1.23076727297119   10.41929783335621
H          10.15109417246701    4.40443058586488   10.65769459013012
H          16.01997011118926    4.66719820802709    7.23866483072470
H           7.09671800590208    1.61679066063733   13.19852017736917
H           8.27955043388856    0.37784587343209   13.65506458479211
H           6.64138297868811    0.38427395822039   11.07232254330632
H           6.35816644802757   -0.65163852744546   12.47451729357142
H           7.83598377052174   -0.83709800414229   11.52266844204522
H          19.88750752853206    2.17715712708537    5.69794411374902
H          19.15503002193192    0.56804264090464    5.81299856168253
H          20.59538660030844    2.00914926852181    8.09393449476386
H          21.24663204219786    0.67104090360946    7.14317500417350
H          19.85312510358100    0.40803594964213    8.19764831664517
H          17.90396306069771    0.48763261234559   12.30522430734250
H          14.54507660578023   -2.48610859338409   16.14397501235201
H          14.89478644779718   -3.61719856739591   18.43629473716548
H          17.77204121881378   -5.08180529093598   22.47887835098636
H          20.04144547039741    0.60872625468132   13.22239789111498
H          19.82841174237706   -1.00848640984406   12.54158381322660
H          16.33056262557529   -6.66542524874169   21.87416797885673
H          14.97460539664910   -7.01848776359488   20.79446928321599
H          15.26448819989188   -4.46952512416786   22.47967533723630
H          14.19344677326791   -5.82703616852681   22.83800202959932
H          13.91706724923214   -4.84061049707520   21.40241192752986
H          21.79728954364380   -0.27215779083660   14.76836757679309
H          22.23338277940911   -0.55318305221620   13.07599067096266
H          21.60866183286030   -1.87557385099342   14.07142229081464
H          20.42618113113310   -1.09305624276073   22.27868934399338
H          22.25576981562311   -2.38292012525007   29.06839556860255
H          22.72503188894843   -0.63442582676640   22.06741003432090
H          20.79918437355052   -5.71557875212273   25.96881933018686
H          24.03841390096942    4.12971617751326   22.09309727333060
H          23.20577816946431    4.57484417715722   23.59523808053563
H          21.86381276685882    4.11007847429956   20.88920668779628
H          22.25080373439691    5.68886634719426   21.57680469986232
H          19.00780734238362   -7.11900720392090   30.25664293436927
H          18.39929474740694   -5.53319271590891   30.76223421639364
H          21.24772908931656   -6.55039034170773   31.21587009037571
H          19.98433901167956   -6.43372706448250   32.44441222425544
H          20.63432552167207   -4.96624611840965   31.70523934247209
H          20.31790697177692    3.64937892698295   22.78539770620940
H          19.87529981929094    5.15358648508696   21.98069464791355
H          20.74065542700525    5.19654541284703   23.51860207138319
H          23.43345680528553   -1.61549350448266   31.01879360490506
H          26.34502815909326    1.70717807847359   33.81918778082129
H          27.43530450898697    3.98556362186846   34.24877029324714
H          26.71237809695501    9.40993603752576   31.19450231884030
H          28.55480492354654    8.94705239561664   32.96498439042829
H          23.96852813768968   -2.35269309573846   33.04463580414934
H          24.96001883987184   -1.99330599044800   34.46216961942299
H          28.84366593827645    7.94469108694738   35.20960021413679
H          30.26750178874915    7.96091531392197   34.16162576369357
H          29.82533874646330    6.04461621363892   36.50030065552798
H          30.95235001704972    7.40686172119288   36.47322317019675
H          31.20964698939143    6.01140853771020   35.41473161004287
H          25.98443887823764   -2.11986244003350   31.57064053243900
H          26.24985095213726   -3.33993909505780   32.81944423277213
H          26.96770430481396   -1.73747196633098   32.98464928130626
