269
 SCF done       -483.046403845212          0.000580407278
C           1.67603543941895   -2.24310746122495   -1.76231161757975
C           1.05224091701184   -3.05043260353629   -2.70869689954247
C           1.48557950193312   -3.14590136650464   -4.05174776793893
C           2.60049588478755   -2.40849252099160   -4.48971155687063
C           3.25995734340086   -1.64828409149611   -3.53087728165262
C           2.82454191339759   -1.54819741734599   -2.18674420016624
S          -0.36079609123633   -4.03375136283723   -2.43489693016122
C          -0.32516467080007   -4.58454533439807   -4.07290673423235
C           0.67751594228397   -4.05173489945092   -4.79991961482492
S           4.67915131186543   -0.67695561859570   -3.81137096312359
C           4.70809946164353   -0.18026154107423   -2.13119508510901
C           3.67939340739569   -0.72106742915127   -1.41717578774427
C           1.17744220023496   -2.10262260693698   -0.40899998354462
C           3.01777573053128   -2.43331770370280   -5.87856395076077
C           1.06371370592703   -0.95728250200246    0.32744739463363
C           0.53366528371631   -1.20506698750649    1.60825959900016
C           0.25046643148471   -2.51035185334234    1.88114218114714
S           0.63202103158562   -3.48315916764683    0.50268480868999
C           2.22772406374190   -2.35354270368861   -6.98960587945875
C           2.98334733518471   -2.39749716760207   -8.17755663423540
C           4.33010459254061   -2.52112018291798   -8.00914573184023
S           4.69712426579724   -2.57069253194364   -6.31885343441543
C          -0.33708888712167   -3.09265487811659    3.11955888298663
C          -1.75631414130519   -3.60644835902153    2.87256994398396
C           5.39399105169434   -2.57076061546286   -9.05029624034364
C           6.28244216870566   -1.32713328545526   -8.99819697355341
C           5.72872532852292    0.69369324262152   -1.66201578062936
C           6.80225895333294    1.19993664247926   -2.36065134085581
C           7.60918605958861    2.05262046820944   -1.60789960750562
C           7.16792426890612    2.22547848691382   -0.31413399145530
S           5.72064028706342    1.28322532834240   -0.03059790438016
C           7.70078929784649    2.97062324898606    0.77842135791017
S           7.19870127995663    2.45757194763211    2.36856508413352
C           8.12971292604069    3.69957928112649    3.15941941681017
C           8.79328765119470    4.47234721977832    2.21010437854588
C           8.54852315218888    4.06712288088042    0.85951610139289
C           9.63967470080644    5.60046604019737    2.53919556082318
C          10.12729200405347    6.38867207093487    1.40649654244226
C           9.86814073428339    6.02390075388811    0.08311625066041
C           9.09332759773780    4.82233124222816   -0.27338569006228
C           8.05388872062115    3.77631300719471    4.57304386310037
C           7.26211831790501    2.95265735256754    5.36379616117643
C           7.31588468493968    3.24589618103349    6.71954731400820
S           8.90140287479425    4.93351925219671    5.55496739278042
O           9.94126078549920    5.90804479474623    3.69118844750719
O           8.92414389187675    4.51804695946417   -1.44498280121562
F           0.32921835344995   -0.21750418304274    2.49994154661793
F           2.40773446381900   -2.32766800161998   -9.39283847044121
C          10.86749598374282    7.53752472590899    1.67706579824996
C          11.35006713750186    8.33397095562153    0.65753155201111
C          11.10372406049673    7.95924197650058   -0.68398473921844
C          10.37110648112588    6.81676402366002   -0.94728323038899
S          11.76592935525426    9.00882011732665   -1.92017811747472
C          11.26086583994018    8.21580389317041   -3.49558946873883
C          11.79572487479413    9.04561150607076   -4.64723870040702
S          12.26764487254993    9.80190430254335    0.92308672893466
C          12.21698303608860   10.02412833913808    2.74437324413546
C          12.87174238411563   11.34440257342461    3.10037404569985
C           8.51074335672477    5.91436912173187   11.98571601830047
C           8.58523555613353    5.67564012346636   10.61668006859190
C           9.34980365185539    6.47534827348846    9.73109531253076
C          10.06834465454354    7.58616287115945   10.21481239235421
C          10.01675414433901    7.80476937458285   11.58537436146741
C           9.26509285672733    7.00008373931586   12.47860889388740
S           7.74321985640717    4.41424666189885    9.75178458167972
C           8.44792075236260    4.93428669921140    8.23429632511825
C           9.27113206242332    6.01096900207212    8.40005953955432
S          10.81523764116280    9.10397880030803   12.42132078810902
C          10.19263550320069    8.54273617129959   13.95730144838650
C           9.40734204047275    7.43366912386359   13.81979002968736
C           7.67644828064087    5.09239059982210   12.83880807552107
C          10.81259467026726    8.44486123784993    9.31473709433621
C           7.47520663205366    3.74301445410469   12.76558457848261
C           6.54885044609658    3.29220025084568   13.72533604957157
C           6.01581466019574    4.25836528421283   14.52546498253992
S           6.69085422221716    5.79221961721427   14.09627760394002
C          10.44947101523659    8.89140472416270    8.07501297039572
C          11.44827575439591    9.69347778140429    7.49057429002656
C          12.57205435124892    9.86944743722200    8.24140786639893
S          12.39892003836564    9.02709221057667    9.74183665383409
C           5.03378523390107    4.10750560788973   15.63516509413263
C           5.64524634411408    4.48967492475664   16.98348448221328
C          13.78483331204687   10.67467656310308    7.92592539573558
C          13.89577642423112   11.89392477332045    8.84245092572802
C           8.15813338659405    4.30516428447268    6.99270208871039
C          10.54264737496592    9.24305368175326   15.14822937367359
C          10.31159253459091    8.89529807872346   16.46275462003533
C          10.81966031111900    9.81445618612168   17.38162671189395
C          11.44405880705444   10.89115485300776   16.79085280428128
S          11.39268290168433   10.74870136235550   15.05098588594248
C          12.04065650463924   12.06946621013384   17.32968339319117
S          12.05211130199573   13.45689108759522   16.27631171001216
C          12.89577760579265   14.44237093490346   17.44030294434901
C          13.15594665899857   13.70395450998414   18.59042652293467
C          12.65809343525539   12.36314065194238   18.53564824873364
C          13.88676572313888   14.21766378466376   19.73153678638623
C          14.06254740079453   13.28200772898021   20.84823929803081
C          13.59409409562130   11.96569261505602   20.79609478161819
C          12.86532602116006   11.42151984932093   19.63635546472752
C          13.17696444678069   15.77900744637063   17.06217943751981
C          12.72800081845145   16.34972570959852   15.87804600426432
C          13.14451946662078   17.65780335243337   15.69107213806134
S          14.13793328147378   16.91222038549345   17.96744813593843
O          14.35629042419572   15.35323710120985   19.77793139029014
O          12.47259851252964   10.26405119730052   19.62855847405146
F           6.21343106477162    1.99415229528629   13.84004593814448
F          11.30426191473477   10.24202003267455    6.26693029920869
C          14.73232545694360   13.72893447180101   21.98627433311937
C          14.94484701153457   12.89417069003657   23.06593387189890
C          14.47631094862380   11.56121807234883   23.01249046474810
C          13.81075318699047   11.12245067965135   21.88407550316952
S          14.79040702816186   10.56494383096912   24.41881436045455
C          14.07754419513878    8.93328581326114   23.97737114666260
C          14.31736674932719    7.97329413380576   25.12708676829488
S          15.77395700116492   13.37366602529740   24.53325803853693
C          16.23379302997917   15.12325972980210   24.22900608945358
C          17.00784051159776   15.63702623675081   25.42815362894646
C          15.76451340518826   22.95735560459357   15.95376786888364
C          15.41689673890414   21.68862379402938   16.40501322331373
C          15.99888950251216   21.07591827480201   17.54314499996239
C          16.98869272511259   21.75621525653451   18.28100236321972
C          17.33466305160746   23.02596788848647   17.83136885291538
C          16.75166162770542   23.63801224594306   16.69392722541227
S          14.28686685284328   20.61973929596148   15.62086310996053
C          14.57700876420790   19.37702383251859   16.82213227453560
C          15.47696821182660   19.77991512219596   17.76569119109749
S          18.57490063767621   24.03575553647381   18.52619840541787
C          18.29733961303454   25.26691245767703   17.31224594465612
C          17.30281795190541   24.91730737698500   16.44627353420882
C          15.15233046738852   23.51682959222073   14.76529817546410
C          17.64821732583329   21.16480848008370   19.42778060801744
C          13.84569651132112   23.41937883136805   14.37706414431549
C          13.61114100481681   24.05335101529047   13.14201545606053
C          14.70408231923168   24.62020433469909   12.55721743309900
S          16.08459046570070   24.37868617302727   13.57028930204890
C          18.01805233696446   21.78172726807229   20.58990749984032
C          18.67205723075121   20.90009025481216   21.47136189139763
C          18.83539781970507   19.62704964100046   21.01194392978615
S          18.14500697739383   19.49411889627997   19.43290566513904
C          14.78607306172979   25.38252206510146   11.28035668715168
C          15.14652462727192   26.84823995520521   11.52680659877898
C          19.45064748342778   18.46003496961699   21.70317281438069
C          18.40557327893071   17.39385625134921   22.03617333067034
C          13.93679447863755   18.11163559750683   16.72778018802728
C          19.08543933209910   26.45103613242282   17.28362745729430
C          20.14963822857968   26.79196796143187   18.08769255310467
C          20.74649921154965   28.00520008851203   17.74065579774202
C          20.14902492960265   28.61767202441293   16.66310174271051
S          18.80095052367018   27.67131496104430   16.08230810411842
C          20.42255718143621   29.86646272823289   16.02823967273697
S          19.06963739116834   30.71665129768352   15.33678765074100
C          20.07144324328136   32.03818911280145   14.79386310888570
C          21.39905083406524   31.79827272627141   15.12593472030393
C          21.60019179710735   30.56353844142962   15.82140939440331
C          22.50148426920665   32.67646847763023   14.77846540862198
C          23.84437237929782   32.14027937062048   15.03975484621973
C          24.04759174985658   30.90915911331076   15.66993602243723
C          22.93762389488505   30.06760905877523   16.15063859102086
C          19.41991806182693   33.09879950729694   14.10787506631195
C          18.07359395885161   33.09689279400461   13.78638608355967
C          17.65566953637445   34.25135896794352   13.12244541325509
S          20.17195019899607   34.57582535755903   13.57021374336284
O          22.35130259507384   33.78829656797087   14.28082268013636
O          23.15106783276975   29.02709182504837   16.75441824677851
C          18.68120537770890   35.13512361563696   12.94511649315662
F          12.38900070291714   24.09296262393996   12.57983187490183
F          19.10586460259956   21.29121535877075   22.68432641766207
C          24.94450513862309   32.89309963325681   14.63316951261202
C          26.23443533829531   32.43746073607304   14.82498076107752
C          26.44069079823506   31.18873687856293   15.45484199149109
C          25.34848543022789   30.45372949629112   15.87387920826330
S          28.10436577530361   30.67585832278592   15.65341250340120
C          27.96696653124248   28.99288061892493   16.37099968188500
C          29.35921754837948   28.40370252828070   16.49496589578397
S          27.66975415455864   33.31325984079864   14.33152728218892
C          27.01205420568941   34.80997894482753   13.49881243464499
C          28.17957594060657   35.62833633204515   12.98087053216831
H          -1.06697115846211   -5.29033273555774   -4.39180839315110
H           0.86416076546540   -4.30114775843729   -5.82792353730265
H           3.55810707282203   -0.54895041091364   -0.36318231237316
H           1.30007188881904    0.02688697079838   -0.03217333879012
H           1.16144705590455   -2.22458699735207   -6.97254613461753
H          -0.35032847934929   -2.31933938522824    3.89053622857166
H           0.28892563781870   -3.91775330398899    3.46874607696793
H          -2.40102249412179   -2.79504740891476    2.54284534691371
H          -2.16672526504841   -4.02669749429869    3.78692256260099
H          -1.74923819454893   -4.37722258494914    2.10504121086650
H           4.91385312022336   -2.64488394274425  -10.02837539099387
H           6.01114218905664   -3.46057399237145   -8.90103143955874
H           5.68886697557432   -0.43020232845350   -9.15924641371525
H           7.04703092658817   -1.38082684233011   -9.76865342531374
H           6.76771102727860   -1.25174827085319   -8.02761964563303
H           6.98824593452228    0.95072964543072   -3.39046841616641
H           8.48618942916488    2.53560869841182   -1.99242792691162
H           6.65675584955602    2.16704814138994    4.94513464481167
H           6.76405560452879    2.71702985569358    7.47692332974947
H          11.04210347051529    7.77277681551246    2.71425899164765
H          10.15748632389306    6.50016982153189   -1.95541174529934
H          10.17218406302723    8.17376788270686   -3.51683110395977
H          11.67829358456407    7.20938904173728   -3.51271415838666
H          11.39205073974153   10.05434169648834   -4.60987261472835
H          11.51088769399488    8.58936993968491   -5.59245490282508
H          12.88020690626645    9.10730091759911   -4.60110464147763
H          12.74930223861770    9.19092292141324    3.20224970467131
H          11.17237179772836   10.01842411716934    3.05248823764734
H          13.91945341375482   11.34662286934542    2.80920943710684
H          12.80051088789858   11.49945040540952    4.17428756482421
H          12.37060097179605   12.16691066067445    2.59585272015029
H           9.81597539033199    6.44061024849732    7.58020420349171
H           8.94761397101148    6.94296394416765   14.65658936909243
H           7.98373454562237    3.08363984931393   12.08790406121090
H           9.50140679356802    8.70105485895682    7.60788321510442
H           4.70178171238692    3.06737997290915   15.65779158676092
H           4.16389524199347    4.74144482405391   15.44259108155656
H           6.50412112489564    3.85953388847498   17.20320127371290
H           4.91188844406883    4.36525388940744   17.77580115470791
H           5.97002517731894    5.52788660049401   16.96879375772845
H          13.72472261746580   10.99657091479778    6.88395009472250
H          14.67665399235523   10.05365873906123    8.04270380415611
H          13.02563920613121   12.53637746855780    8.72722375854426
H          14.78601760772153   12.46696732414502    8.59697138328953
H          13.95771061283246   11.57846439126604    9.88157816740080
H           9.79690202991347    7.99588706982028   16.74764497997615
H          10.73893931400321    9.70185453717166   18.44565283291804
H          12.11207141064501   15.81171275295169   15.17836256424862
H          12.89557247158962   18.25791322360169   14.83342267556259
H          15.07399211494742   14.75135385280135   21.98183128983116
H          13.43499769306381   10.11533500354289   21.80194741473850
H          14.57124493767703    8.58697015043214   23.06978675122948
H          13.01129926249766    9.07023806928748   23.79890036237208
H          15.38265538249987    7.86202876238057   25.31429235688695
H          13.90058722334904    6.99809808312511   24.88521923571034
H          13.84494798788646    8.34052219226237   26.03498600887207
H          15.31509859469920   15.69112717833913   24.08369374259919
H          16.84368531638052   15.15606524347209   23.32699278201931
H          16.40045852768199   15.57791092256054   26.32803200585950
H          17.29320370816932   16.67408175479503   25.26656431104331
H          17.90780192954421   15.04642836095017   25.58194567975502
H          15.75153882313659   19.14560964336830   18.58779058812610
H          16.98861912257156   25.56812668400311   15.65127984884980
H          13.06862630595273   22.95333019324342   14.95307842404012
H          17.80614721705812   22.80554690994987   20.83447637972902
H          13.81809749636297   25.31582675097184   10.77917839309009
H          15.54118887567834   24.93057711167684   10.63158554290221
H          14.39677235864413   27.32259486830570   12.15584716093721
H          15.19788743032606   27.38490753373511   10.58316437247011
H          16.11195890832035   26.92110248175544   12.02293168153787
H          19.92491165389302   18.81512208431359   22.62069808691706
H          20.22147428435163   18.02049065116851   21.06481970624525
H          17.63450749208787   17.80921696778127   22.68160994009764
H          18.87899732226330   16.55934498086192   22.54750034102867
H          17.93442406257570   17.02844444480190   21.12598588263487
H          20.48315620014787   26.16795018488845   18.89793705011065
H          21.58784415316153   28.42485862615164   18.25728254666636
H          17.42259879073762   32.27420096582831   14.02698353602804
H          16.64549526161430   34.42053871365196   12.79443174906135
H          18.63602073145949   36.09351348013480   12.46572725627936
H          24.74007224443393   33.83965267110312   14.15950365713971
H          25.45952146853567   29.50311744836910   16.37020218097593
H          27.34815289614338   28.39552878728348   15.70205551888646
H          27.49170159963572   29.08033861716636   17.34769422314347
H          29.83510797631572   28.34288875232010   15.51919142757396
H          29.29889489960080   27.40352279883276   16.91832075338180
H          29.97807259924706   29.02083258496217   17.14177533050873
H          26.43324604508499   35.37477308225612   14.22924980001531
H          26.37111929186959   34.48214564861659   12.68069101080370
H          28.82631807747793   35.93089200559267   13.80102188413879
H          27.80984587866092   36.51988421016657   12.47907515805812
H          28.76818491675619   35.04752475452872   12.27465157798881
