314
 SCF done       -509.698544047426          0.000628441909
C           2.53888356909327   -4.37105337914399    2.69290437847159
C           1.65430492765395   -4.01204092120399    3.72556334864470
C           2.14937587011846   -3.43912132686574    4.91859985181280
C           3.50093560691817   -3.19409996398842    5.14874161220130
C           4.38913306588461   -3.58988868509440    4.13092329015217
C           3.89199892628416   -4.17480418313849    2.94071590933692
C           0.23555192071433   -4.15719588180163    3.75979690615499
C          -0.31370210644999   -3.69122276230098    4.89876181768227
S           0.84620524935313   -3.05530761443602    6.01395430844809
C           5.80321923448370   -3.50004784847879    4.11935961835110
C           6.37582047856257   -3.96775403900261    2.97415826442550
S           5.18359333506543   -4.56083877425938    1.83505446681351
C           2.04913961067783   -4.88998498906529    1.43017393736473
C           3.94918017766641   -2.55409685391860    6.36892122643634
C           1.00380188938287   -4.42960024599590    0.68129526596184
C           0.80720836358655   -5.15842974249650   -0.50908264079510
C           1.69017866285394   -6.18094851553050   -0.66889165490177
S           2.80454542018369   -6.25386722895314    0.65696177695216
C           3.49332188617257   -2.75207256743554    7.64183537171522
C           4.12745579199266   -1.93298392471472    8.59685317675616
C           5.05359652488188   -1.09199901025516    8.06202240866815
S           5.17213067818741   -1.31256068810099    6.34764783701674
C           1.81277727355747   -7.13504029355723   -1.80655958072263
C           3.03149517895701   -6.80671117231587   -2.67153468808342
C           5.93602859432004   -0.11291929467774    8.75650120407563
C           7.39511448784756   -0.57304635700571    8.74150287621902
C           7.76065880831141   -4.01239057835731    2.64938251103624
S           8.94503046844682   -3.30707564556186    3.70602502028631
C          10.24680193456128   -3.76753190193949    2.63441031645212
C           9.75024173877421   -4.42743803302352    1.53415391913482
C           8.35980718160640   -4.55966221816718    1.53879008824603
C          11.60262935338577   -3.41844381510985    2.96202198352879
C          11.87149827563414   -2.49252796716240    3.96015362974630
C          13.16084851553467   -2.09442628990567    4.28010740436781
C          14.27445465951329   -2.63381686223481    3.65599791234954
C          14.04607041827281   -3.62043591858711    2.65298192983598
C          12.72056585133162   -3.97821655943301    2.27479012107225
N          15.08508941518452   -4.22896864433863    2.06467466395461
C          14.89157503513775   -5.10094170043323    1.10344939768151
C          13.56970199631463   -5.33608418983542    0.61822204587661
N          12.53978742064387   -4.81171164328967    1.23877876680030
C          15.60280844316971   -2.19163241625417    3.98836635622461
C          13.27927753604640   -6.11517332953275   -0.59094769484263
C          16.09127176957406   -5.79394020598615    0.62213616908837
C          12.17189855685484   -6.96251498897903   -0.61615653687525
C          11.89165940233827   -7.68409349866128   -1.75779573301731
C          12.68821861730267   -7.57220332467278   -2.88676494864896
C          13.78426825639689   -6.71428474779086   -2.87576124066035
C          14.07144783258040   -5.98702482775539   -1.72188862310967
C          17.28560109762352   -5.07565447576420    0.58776381818150
C          18.46475123568738   -5.69184628276313    0.19387614019047
C          18.43559099827794   -7.03803400708566   -0.18001186169820
C          17.25316817329195   -7.74756398267477   -0.13225279823180
C          16.07731927460617   -7.13963747288691    0.27306791398265
S          15.83772196795655   -0.63436237275730    4.74273013897354
C          17.90947467331541   -2.05773819993972    4.20003986244071
C          16.81160389094835   -2.81314359739768    3.78109005089609
O          19.67678544852444   -5.08269308504812    0.14599128437319
C          19.78511353803121   -3.74594014292119    0.59883219091974
C          21.25334679850627   -3.35460498063732    0.54623039786144
O          14.62875331615327   -6.51056846830065   -3.91929756352623
C          14.41899062587410   -7.22008203116054   -5.12415191307591
C          15.51411959322144   -6.80959595307084   -6.09594409938845
C          17.56377690850902   -0.83819748411287    4.73425215893844
C          19.18032740365150    3.53188956213088    6.56603475665360
C          19.19333944439754    2.22672032912215    6.03524325280748
C          20.42346004269785    1.59238746923159    5.73844839046301
C          21.66245754891042    2.19127186552909    5.93736725282703
C          21.64569076251973    3.51925067444576    6.40899882302499
C          20.41451124303291    4.15482139921656    6.70333009339238
C          18.08329234391404    1.41161689131048    5.70462266336021
C          18.42656793861429    0.19031527529625    5.20470126340058
S          20.16614811637550   -0.01804626946540    5.11874327030316
C          22.74593965186176    4.38632808548866    6.61303394296148
C          22.39509228551421    5.62564617095400    7.06176040879480
S          20.66270782970471    5.78467504994103    7.27008359991335
C          17.93699326297491    4.16624333257595    6.95381757880734
C          22.89488167299214    1.47512846920082    5.67698203078745
C          16.88432745145002    3.61051559825808    7.62524118160624
C          15.82844362150916    4.51501930740060    7.85358727286873
C          16.06221645753691    5.75757135295758    7.35083729964945
S          17.61805598823688    5.83870839214269    6.59108357427716
C          23.17445966685836    0.61466099405685    4.65286460067104
C          24.46514918016289    0.05486570062299    4.72903404650232
C          25.17223772076354    0.46644233725880    5.81608794477957
S          24.24855929791000    1.57949270906197    6.76961696138973
C          15.19783915879629    6.96876459364857    7.42403637984680
C          15.77382877742582    8.00130061489164    8.39505625594936
C          26.56678732608913    0.11844585046163    6.20793559281696
C          27.51360162425542    1.30174944454973    5.99699069873940
C          23.24892651303742    6.73587069333732    7.31045122097385
S          24.97166419578844    6.59411466025817    7.13571013102019
C          25.19603214231375    8.28560237510899    7.51055224629894
C          23.98589358530329    8.88610102539137    7.76741575039257
C          22.89641634204369    8.01853864186440    7.66151437081433
C          26.51765771642991    8.85309344481226    7.49360880792264
C          27.64080685036017    8.04241728832978    7.56437775600789
C          28.93145257100841    8.55216415555049    7.52356302680068
C          29.17962629459830    9.90281275404007    7.34458830671206
C          28.05343859797246   10.77027837607521    7.25604579985861
C          26.73169484224289   10.25912695935344    7.38674621691546
N          28.23416949103268   12.07847352071389    7.03070459282389
C          27.21010998853665   12.89890725808070    7.00258544156102
C          25.90530793660474   12.40790552241292    7.31402297189333
N          25.70284281467539   11.11824783556110    7.44342252920023
C          30.52225743405275   10.41403618241913    7.24392656079420
C          24.74653383944935   13.27624456485317    7.55197120683358
C          27.51459637549267   14.27857543631538    6.61100832671152
C          23.49191872387005   12.89634702161137    7.07602469185961
C          22.39938286838176   13.70364503886607    7.31511522230040
C          22.52637853652165   14.88247160108322    8.03326940722593
C          23.77181307742250   15.25866424413076    8.52829753709644
C          24.87835218361386   14.44735823926958    8.28288816054283
C          28.76517428864965   14.78754771272883    6.96001503241595
C          29.13862134983873   16.06484890748853    6.56829989152875
C          28.23757779394040   16.84095617765328    5.83415649763351
C          27.00660937079160   16.32800765072103    5.47999445232760
C          26.63726806973710   15.04723663830287    5.85402303278788
S          31.84883400393219    9.55870783090598    7.98655489131062
C          32.35576878878283   11.72110570024363    6.68996530014251
C          30.97305264488211   11.54044881284061    6.59884597421586
O          30.33976177506741   16.63600388767166    6.83948655147981
C          31.32914180797179   15.86158943547084    7.49164503323954
C          32.60343041963779   16.68879627891474    7.55012989829089
O          24.01845540413308   16.37938685014085    9.25422293134940
C          22.95246252504868   17.26333323660523    9.53960149691487
C          23.51804157078000   18.42085416962119   10.34726959906053
C          32.98852793896410   10.74351609013721    7.42118055750749
C          37.30653430027504    9.25370407012894    9.47953904881976
C          36.38990606570729    9.96072513061810    8.67673156646535
C          36.84301698675147   11.00217687808842    7.83197139442609
C          38.17927802956335   11.36801598156370    7.71399270393643
C          39.08976887620129   10.68356132445385    8.54294122954300
C          38.63211378536408    9.66467365204702    9.41389039485379
C          34.98570454795371    9.78760685894141    8.59766918484630
C          34.37509919604786   10.63921736661918    7.72581467003172
S          35.51997844869310   11.71759675000930    6.94934377212143
C          40.48450350985393   10.89206765873346    8.66561705985207
C          41.08668771237094   10.07171871309593    9.57330092188952
S          39.94593046307700    8.98178804772513   10.33506667557881
C          36.87499686079283    8.14872056808669   10.31233157475994
C          38.59820818097904   12.38318070958635    6.76853935593923
C          36.01854551969674    7.13396518494793    9.99142228564894
C          35.82463472389866    6.21495034690249   11.04221925546223
C          36.51914892637464    6.52731405425057   12.16955252350791
S          37.45072323899640    7.97196999491401   11.94575552353525
C          37.97362818814470   13.55711730194006    6.45422883401672
C          38.63113507937755   14.28755977755819    5.44450480426130
C          39.74656599389132   13.67168154751485    4.96759522463555
S          40.01725954144979   12.16601691551475    5.78046478746521
C          36.58209062632766    5.78577559821520   13.46012502064378
C          37.95522485852013    5.14256972911753   13.66262437511785
C          40.70480503134199   14.14852225088218    3.93133533950685
C          42.03661981595788   14.56684209030364    4.55777147622649
C          42.46251106890028   10.04175551672988    9.93561172761217
S          43.63294334505186   10.97354697674613    9.05179883794952
C          44.92645449764498   10.41615809712208   10.08369759482003
C          44.44114237498538    9.55901783054097   11.04310557858324
C          43.06347726181924    9.34227656594976   10.95574103794419
C          46.27634536999275   10.85098697176092    9.83900747865917
C          46.64027944137669   11.38104823640679    8.61122824313984
C          47.93977251840345   11.77949294137302    8.33225527394028
C          48.95639686246608   11.70871578006492    9.27138219710778
C          48.61469831373699   11.20830930955202   10.56210241362354
C          47.29244390666572   10.75334326390587   10.83378132869919
N          49.52752262821188   11.19347254112956   11.54572026633905
C          49.21853173004178   10.73139474005141   12.73373287503845
C          47.93158651214924   10.15856575592500   12.96444684318450
N          47.01188196167783   10.21737070870579   12.03144107389386
C          50.29426085829414   12.13349813678776    8.94172919651593
C          47.55939553838692    9.47135610814401   14.20638094802158
C          50.24710446415131   10.88051214970207   13.77039653990001
C          46.27013728517496    9.63586630713643   14.71336023591969
C          45.90980974785236    8.99771232020814   15.88155790036961
C          46.80801826999964    8.18676226808770   16.55780823840621
C          48.08922084024169    8.00032975114418   16.04698936311969
C          48.45538282533766    8.64368133944396   14.86584263360200
C          51.57585400688078   10.65419698514281   13.41783457549830
C          52.58600633232939   10.81748908788982   14.35566029902588
C          52.25236056980690   11.21291239373199   15.65348999752674
C          50.93656015921734   11.45398898700411   15.99110745755821
C          49.92657731062726   11.29363279948685   15.05844215249368
S          50.73268302527008   12.41822660152311    7.27275582874698
C          52.52006362649914   12.78639473288384    9.06473280246332
C          51.36625227873007   12.38063193359972    9.76000897919718
O          53.90793393721891   10.62449837100514   14.11321166285219
C          54.31859961275127   10.26972720280966   12.80673418299315
C          55.83591407383920   10.17279481598361   12.80994877986478
O          49.04996591362860    7.22339808515882   16.61091163508713
C          48.77512590049535    6.56993114900796   17.83425193524472
C          50.03102840689252    5.81903537291611   18.24769011578308
C          52.33156392233317   12.84646166496261    7.71990045268806
H          -0.33057460633950   -4.61098341342596    2.96728545704367
H          -1.34906726976751   -3.68403780149985    5.17843054348913
H           6.39046176498255   -3.11635105153456    4.93350373721417
H           0.42024206449615   -3.56828881425839    0.95448976523959
H           0.03430678467876   -4.92970525551008   -1.22184757210497
H           2.75253828611019   -3.48884813858694    7.89471492759252
H           3.89856780689280   -1.96548962303603    9.64747815675842
H           0.90512611749096   -7.08064776584147   -2.41157246707586
H           1.90963622253876   -8.15408740325495   -1.42394413264955
H           2.94754769013339   -5.80072640355769   -3.07649435892236
H           3.10966112512525   -7.50967612751118   -3.49714938984377
H           3.93996861139580   -6.86386195835250   -2.07632455252638
H           5.59351586906577   -0.00289020844005    9.78765035407880
H           5.86344141035562    0.86142695564411    8.26604223226456
H           7.49303914151335   -1.53755923703696    9.23483038626905
H           8.02374472267004    0.14786119500627    9.25817274392422
H           7.74748651433744   -0.67183391625690    7.71714369479263
H          10.38941165058964   -4.78664042354886    0.74987924343478
H           7.79589770561661   -5.04090048148367    0.75881512882354
H          11.04294759263460   -2.04943613299176    4.49391481398854
H          13.30353213147713   -1.34704518690843    5.04752379198593
H          11.55529680332827   -7.05261238008946    0.26440157177664
H          11.03948213787191   -8.34740707809901   -1.77892899393327
H          12.44311246634428   -8.15027755002999   -3.76370889706993
H          14.91700718465138   -5.31765914622071   -1.73853087144396
H          17.25590792921983   -4.03597527483972    0.87106726887065
H          19.35659927999583   -7.50395249097872   -0.49275790295092
H          17.24743590457219   -8.79186145065152   -0.40677977047157
H          15.16296963863857   -7.70905447780481    0.33536679431792
H          18.93376473532729   -2.37841970157148    4.11915476752649
H          16.88102865954628   -3.79106856614214    3.34371701565990
H          19.40783809076016   -3.66561166679449    1.62734557093654
H          19.19195382905758   -3.08053444740914   -0.04381254992268
H          21.83674702874126   -4.01735139143042    1.17959403882812
H          21.37390618016844   -2.33200979668208    0.89239738190810
H          21.62402765788493   -3.43412005634359   -0.47207634707318
H          13.43114956717211   -6.97580184598544   -5.53976756868244
H          14.46434775485325   -8.30228000584412   -4.93769077282329
H          15.46671353798848   -5.73925853708980   -6.27637426753061
H          15.39111067977506   -7.33719636906602   -7.03744732275586
H          16.48807121400126   -7.04639078430896   -5.67660434018585
H          17.06010461820653    1.72720922996433    5.80032493213932
H          23.76814312972501    4.12225178454504    6.41188482076240
H          16.88482818297475    2.59611534316695    7.98260363682110
H          14.92452851536339    4.24943138944235    8.37314769427449
H          22.49127137532950    0.41541344345491    3.84723546016842
H          24.85368761136332   -0.63474189402730    4.00043623024711
H          14.20001364145823    6.66935894756636    7.75180513410035
H          15.11172801262484    7.41991908102530    6.43225365252502
H          15.85255930076900    7.57828443467263    9.39408650822802
H          15.13339640675703    8.87887335217055    8.43741064799995
H          16.76595372070815    8.30771750521667    8.07133405210626
H          26.89806333179467   -0.73151131064339    5.60749422567253
H          26.59134140380447   -0.17539959215000    7.26047607550203
H          27.51282586546186    1.60506407649687    4.95237445087494
H          28.52735464471374    1.02961643755171    6.28003936350231
H          27.19791150308411    2.14842488656649    6.60257074229425
H          23.90953371609720    9.92504783551854    8.02714491190435
H          21.87342160855707    8.30983339357687    7.82432516995076
H          27.50461332814741    6.97493508633665    7.66327437584238
H          29.76819596831177    7.87301530171368    7.60331010770420
H          23.39502177441556   11.98035124129306    6.51462618317702
H          21.42736450289344   13.41764010694409    6.94094556729545
H          21.65300945364738   15.49198236763873    8.20346154748554
H          25.83254947893826   14.74994020982969    8.68462859048438
H          29.42006117695751   14.15637936134869    7.53849461232469
H          28.53427562320823   17.83666888092220    5.54483389380750
H          26.32661171129799   16.93074093562871    4.89663755444241
H          25.68579562840968   14.64366833556294    5.54469034355037
H          32.89191610493219   12.53942410068973    6.24134849462161
H          30.31110501807811   12.19830713775822    6.06792436571803
H          31.50622118622569   14.93151593973710    6.93477422840600
H          30.99750420076625   15.60270129800017    8.50682125551904
H          32.92596066127861   16.94512664407327    6.54460002817243
H          33.38776220182397   16.12176506936006    8.04348350012690
H          32.42560763507342   17.60818735084195    8.10117798426701
H          22.17402403218669   16.74331979542595   10.11564062344000
H          22.50942754581928   17.63455804128606    8.60476114562002
H          23.95507987386595   18.04976049472621   11.27014705366151
H          22.72839473212539   19.12815973804390   10.58416885822792
H          24.29264401051002   18.92578602114414    9.77676103696707
H          34.43635113831422    9.07703631943331    9.18836596116987
H          41.03388442636420   11.63737909556751    8.12000964866185
H          35.57423787776909    7.02498680271455    9.01804895362625
H          35.18790915037459    5.35141791802381   10.96196158840323
H          37.08944351967707   13.90703890388101    6.95560543453783
H          38.28245607443010   15.23815099769600    5.08102905210497
H          35.80803980578483    5.01533702495813   13.46056104052248
H          36.38297205123761    6.47104792013173   14.28816242888425
H          38.16909715186794    4.44552466988695   12.85550383575398
H          37.98419946483958    4.60305202501010   14.60599234536007
H          38.72971682216127    5.90618133111790   13.67263672468073
H          40.26036195889962   14.99693097777486    3.40656615655208
H          40.88656723265127   13.35303123063312    3.20402822031830
H          41.88073118887641   15.36579864938701    5.27929743712045
H          42.72084249956702   14.91932293855563    3.79002599516204
H          42.49279793221172   13.72280351501741    5.07036737493860
H          45.07844482084361    9.10301321098375   11.77699312887682
H          42.50965482045689    8.69925844444415   11.61730284918194
H          45.88976682562511   11.47052224198537    7.83890981962359
H          48.16441993790676   12.16572721054785    7.34832823391408
H          45.57465818413583   10.27077961268568   14.18733638700596
H          44.91482530623590    9.12834623781665   16.28097909993961
H          46.49755865057076    7.70447483089144   17.47117303138304
H          49.44745125086207    8.47169743681872   14.47947668483698
H          51.78492201222525   10.34313025944120   12.40672668476484
H          53.04672118665989   11.33083535939554   16.37329463747585
H          50.69340913129010   11.77396849781428   16.99324260702852
H          48.90131974572984   11.50269444870925   15.32221297445144
H          53.45287052461104   13.02647960439299    9.54422504154844
H          51.30540807304607   12.28250965955923   10.82719682300223
H          53.98799035309226   11.03179384537847   12.08756480575926
H          53.87767593039953    9.30451951679754   12.52106836724572
H          56.26861248845621   11.12844011243161   13.09290183859503
H          56.19081470833219    9.89798185707742   11.82080643082995
H          56.15758371767549    9.42223928898088   13.52659529970028
H          47.93756811222223    5.86912006021527   17.70911935341112
H          48.50480091560936    7.30744843701850   18.60300393826663
H          50.29549345144546    5.09145738609254   17.48541215188139
H          49.86204330816906    5.30525834627215   19.18973904461449
H          50.85707685266543    6.51550924677919   18.36211069656759
H          53.03334200002253   13.12163132139445    6.95749978943165
