245
 SCF done       -439.428510380684          0.000790441330
C          -0.89509644297072    7.11106771564973   13.09532308242821
C           0.06339202742122    7.21700717536693   14.12963005208538
C           1.42497933453968    7.00485174016215   13.93409728739456
C           1.83419373393054    6.69581232983704   12.62275870955518
C           0.87111254913230    6.57776255359941   11.59069415110196
C          -0.48798891654058    6.79490946114075   11.78699140291161
C          -2.22041246624683    7.30155293967885   13.58654945098298
C          -2.25979069470828    7.54907008965749   14.91106273396177
S          -0.70000755727682    7.57080666390869   15.65690943573973
C           3.15268013521833    6.51143876327040   12.13628578526822
C           3.21161148841243    6.23570132004068   10.80025480691005
S           1.62262335616107    6.19773698932062   10.06678840475185
C           2.37990459961169    7.06465619914259   15.02266250784644
C           3.40785180693591    6.20296017689956   15.28196698541473
C           4.12039365180351    6.56587173236978   16.44119857137525
C           3.67639884147006    7.68898772777744   17.07274554089005
S           2.31327157127842    8.32822897914651   16.21970949149685
F           5.17184107254913    5.85076968254551   16.88660847627435
C           4.18621813252137    8.31299216706184   18.32537938270812
C           3.18085467072253    8.16414512261174   19.46839281874575
C          -1.44024281605101    6.72329054362431   10.69536321337688
C          -2.46288944139621    7.58394970604259   10.41540805154378
C          -3.16489842148729    7.20731599920578    9.25356510237381
C          -2.71677144860727    6.07530868354087    8.64140444386244
S          -1.36484503633750    5.44326887376903    9.51724144258079
F          -4.20900834233311    7.91975539453830    8.78760467069809
C          -3.21473442751434    5.43366043730553    7.39282800732751
C          -2.17579202061778    5.51691622107101    6.27358810477484
C           4.36369476085863    5.98120922418619   10.00078211349092
C           5.69027132608725    6.13713708700200   10.34227025249549
C           6.56423178965246    5.78705626159402    9.31423525444071
C           5.92725657817137    5.34476228132732    8.17213719219565
S           4.20078522993899    5.39888031796961    8.37302905407640
C           6.47970717062511    4.85986416885414    6.93917874179955
C           7.83827320370465    4.62253970681059    6.71072237300187
C           8.32348962262037    4.14732663887808    5.46192563317058
C           7.47948174467149    3.76497323577435    4.41914539016652
C           6.09959756810143    4.01635301833423    4.62638131252609
C           5.61348603886785    4.56947251445223    5.85506218575454
O           8.73151209438134    4.91452656014079    7.70473694786729
O           9.69446709879430    4.07178578369315    5.31700995314768
N           5.11723030443054    3.79072645185866    3.75897784436503
S           3.71786049735629    4.23175914482213    4.41966947363685
N           4.29311711564801    4.72832092815651    5.83848242088009
C           7.90681403923324    3.11755506949707    3.21109874509449
C           9.12060791934720    2.53141543000039    2.91190963687350
C           9.14610535813445    1.90602813564573    1.66572158888016
C           7.95134845331175    2.00334843761503    0.98810484725754
S           6.77228628891675    2.88450725041862    1.91392771432816
C           9.53850709741008    3.84333365668426    8.18623344608408
C           8.70606946518335    2.75946418644193    8.86137795975330
C          10.25993189417269    5.10705534954698    4.51987277248151
C          10.14349866699723    6.47932378164284    5.17074994218842
C           6.24875877800585    0.72852974455255   -2.03539374613274
C           7.47821757662120    0.10929004323175   -2.37202560780864
C           7.63612697908539   -0.71466512205983   -3.47865531006729
C           6.50383198055339   -0.89486527927732   -4.29829427861132
C           5.27399713967179   -0.27742236626056   -3.96097249996098
C           5.10834111672231    0.52849825341843   -2.84008864263265
C           6.35555374492938    1.48769786349289   -0.84772800911932
C           7.58432340952523    1.42515759532944   -0.25763753550943
S           8.70746735403834    0.44981447783263   -1.18236764858111
C           6.39662292084483   -1.67544566247802   -5.47241555220741
C           5.13803355370058   -1.71352464672657   -5.99972948657904
S           4.01628642613354   -0.72652252628086   -5.08281780902385
C           8.88371838192657   -1.39158212329798   -3.77342853848848
C           9.06593658861330   -2.68444732328942   -4.17473874604641
C          10.42636267238128   -2.98703324655790   -4.37727534738163
C          11.29375416861056   -1.96072345642471   -4.15124172989586
S          10.40913161274208   -0.55908424737422   -3.65321218998627
F          10.83370626163685   -4.20830656607543   -4.77693164728875
C          12.77999258695225   -1.96133666024995   -4.25027379177380
C          13.42924652376825   -1.79364165942794   -2.87592553545050
C           3.81871655382892    1.09968343884526   -2.50732460500923
C           2.88425920493146    1.61938221089886   -3.35802668181268
C           1.73547274633134    2.06390192075390   -2.67521694091990
C           1.74963553924669    1.88342811359805   -1.32425008245968
S           3.24027240038467    1.13933909112911   -0.86266509276072
F           0.69726223117838    2.63186917565937   -3.31732890230137
C           0.72127629986413    2.26885321466024   -0.31764182647485
C           1.26935610926750    3.29186198624745    0.67877848217765
C           4.70347167620722   -2.48428709512820   -7.11151288110304
C           3.42844954559918   -2.62172496082975   -7.61524709257505
C           3.34716666643359   -3.54863039236293   -8.65299629762238
C           4.55542809118946   -4.14075397027264   -8.96078885925997
S           5.82732681774768   -3.50074972691270   -7.96590707942399
C           4.80491647455160   -5.19984781612887   -9.89063697881388
C           6.09160533142354   -5.71424537836494  -10.09138846897709
C           6.35030564244020   -6.79797465197378  -10.96770070388003
C           5.32185131295770   -7.50600754316786  -11.59082569596801
C           4.01967957460544   -6.96424985573475  -11.44423766858812
C           3.75879231178415   -5.81284991113368  -10.62641299315120
O           7.09456952383195   -5.05770387669208   -9.44292429786467
O           7.66974325528193   -7.14016027616708  -11.18539141827327
N           2.91789618241572   -7.42658156134957  -12.02605987064895
S           1.67118618583789   -6.50511294976061  -11.59595461522078
N           2.47003546356519   -5.47874575237074  -10.64811999784077
C           5.50241315440893   -8.73074271080829  -12.31775245628353
C           6.59036099837197   -9.58105691762895  -12.33343442464236
C           6.38215312198387  -10.73923265612583  -13.08115998646874
C           5.13068105477217  -10.79509303498881  -13.65270130682477
S           4.19004068036450   -9.38887228428112  -13.24958373353570
C           8.09351273089106   -5.78572256023227   -8.73427558363150
C           7.49988168907821   -6.74561204433362   -7.71336912253635
C           8.17073493455621   -6.76779215469716  -12.46483670091554
C           8.24559826249108   -5.25691977970057  -12.64796786930030
C           2.96548163602890  -13.08192350796645  -15.59318683950926
C           4.06797248583593  -13.97072808745233  -15.63119879462655
C           4.01338902779084  -15.23291076101641  -16.21358883934043
C           2.78940278465387  -15.59889950192812  -16.81001838836101
C           1.68999442888322  -14.70452639825198  -16.77960523984379
C           1.73531393909292  -13.45514523700054  -16.17023375591729
C           3.28517786666759  -11.87725474554261  -14.92479906996627
C           4.55328478894160  -11.84034403793845  -14.42394263372556
S           5.44613786973038  -13.30069941603141  -14.79702773886242
C           2.46590901365263  -16.80563750078970  -17.47553402912318
C           1.17268261560307  -16.86723373245186  -17.91169651476526
S           0.28749759340005  -15.40535489671941  -17.53787783851556
C           5.15844604529396  -16.11993989567697  -16.16527800167255
C           6.47722637440356  -15.79087036422995  -16.30309968720141
C           7.32270087572186  -16.90456135668416  -16.13669416144396
C           6.69462732303896  -18.08079075718074  -15.85620542482778
S           4.98484815605450  -17.81835054693815  -15.80893284263702
F           8.66140839728855  -16.80861324135206  -16.24524985052745
C           7.29499110743218  -19.42824081677477  -15.64877122162308
C           6.90093020236128  -20.39579439934571  -16.76545450825271
C           0.56342439004234  -12.60509494133627  -16.10958032211701
C          -0.38649679671562  -12.40926202505493  -17.07221378985839
C          -1.39951039127629  -11.52914922295771  -16.64510955176742
C          -1.26843168524707  -11.05688099721007  -15.37319162210024
S           0.16483313568991  -11.71395923940546  -14.66447769823198
F          -2.42403026080826  -11.17624859229669  -17.44398697758324
C          -2.13558841186367  -10.09309733965906  -14.63947951565112
C          -1.37301299739079   -8.81610561869298  -14.28246225297049
C           0.52658176693675  -17.93930491201543  -18.59146789218729
C           1.05249871283783  -19.16895168026227  -18.92625606318950
C           0.13520189341757  -19.99829196892365  -19.57035233982239
C          -1.10577680396005  -19.42027265986220  -19.73655297816390
S          -1.13606293973866  -17.81389835615049  -19.08173599951033
C          -2.27913309210011  -19.97830031762384  -20.35274529061659
C          -2.27916251946548  -21.15227607582564  -21.07667734662047
C          -3.58997495426961  -21.32436542939762  -21.74857418807095
C          -4.67028276286878  -21.24496377686120  -20.83661413021958
C          -4.83039237941871  -19.83046032361009  -20.50677390253912
C          -3.53933084576351  -19.24243495448082  -20.21245908547963
O          -1.19506754138273  -21.92331727954602  -21.23996427731343
O          -3.64862809049019  -20.65105592716302  -22.93569762094019
N          -5.83242410261908  -19.04167187985496  -20.24090690058203
S          -5.24770013565875  -17.62815672875000  -19.66715987666290
N          -3.66324154267003  -18.02551866418390  -19.74398924307202
C          -4.93941441571104  -22.20740153696996  -19.83470967040088
C          -4.70804791736193  -23.56803901417220  -19.85393363521409
C          -5.16695328185111  -24.22173641301277  -18.70026116254638
C          -5.75143369931583  -23.37860030767887  -17.80671206909967
S          -5.75557688850333  -21.74827076286035  -18.35814808116563
C          -1.10619151294529  -22.67448047968182  -22.44877388441160
C          -1.99896555805308  -23.90649747474896  -22.46474783906566
C          -4.91232892826087  -20.21441066425745  -23.39900980292693
C          -4.91456486147249  -20.25488299767788  -24.91856141374207
H          -3.09663459745476    7.22871700354810   12.96956599986295
H          -3.12225182300859    7.72490325957878   15.52372143549255
H           4.02668664814257    6.59686864852401   12.75395805721507
H           3.62521223033709    5.32254636084986   14.70623458797435
H           4.38059429516771    9.37461328308060   18.15277554682082
H           5.12782465312024    7.82872575495975   18.59297583079601
H           2.23795165100536    8.63753518351758   19.20386287750248
H           3.56664549203075    8.63210986024318   20.37021492270203
H           2.99444691702941    7.11278891026969   19.67461144480771
H          -2.68502158408321    8.47210952901498   10.97727356164182
H          -4.13301152741048    5.94017676323242    7.08800698270435
H          -3.44913052116667    4.38411133864079    7.58911505244457
H          -1.94800650339140    6.55537849123704    6.04476358971575
H          -2.55474901143985    5.03779748261617    5.37460558730068
H          -1.25656541641931    5.01984169325560    6.57557139645527
H           6.01556537373025    6.50352323029601   11.29927035054860
H           7.63178810658744    5.86563852672064    9.38962164711191
H           9.95058784585470    2.52669350893425    3.59381503875829
H           9.99991209895118    1.38517625999475    1.26916693500325
H          10.20745408594523    4.32004086123959    8.90707770872787
H          10.13260517561465    3.41206669346103    7.37531510912098
H           8.10486915101113    3.18289289410127    9.66266300874141
H           9.36419589448222    1.99999912270893    9.27411717244343
H           8.03998151841109    2.29110371930946    8.13906524173513
H           9.79116215628200    5.11777733613877    3.52733905951339
H          11.30946681886813    4.82178554558008    4.41403792460193
H           9.10020206563769    6.77975462368952    5.24533362650696
H          10.67821970835758    7.21147587786863    4.57211603379465
H          10.56664319700660    6.45776601611482    6.17184711867229
H           5.55659115339496    2.06500853272119   -0.42134163654597
H           7.21987529654551   -2.19451459699215   -5.92710722524514
H           8.27980391437222   -3.40858479368941   -4.28003739699871
H          13.10339816044752   -1.14612194952335   -4.90280421222528
H          13.09462345971495   -2.90642324907351   -4.69808760615175
H          13.11233614041032   -0.85692929526852   -2.42288430292712
H          14.51191489857555   -1.78821736314311   -2.97077418658410
H          13.14155975899553   -2.61094355142302   -2.21867928304350
H           3.01209207854724    1.72257408462586   -4.41911910326623
H           0.39016444913813    1.37965277239764    0.22615726616516
H          -0.13798606394071    2.68524029153405   -0.84774810990018
H           2.12800690969744    2.88301733442894    1.20730467855883
H           0.50466015461692    3.55416728616626    1.40521080000596
H           1.58087705883399    4.19583200590067    0.16066612423874
H           2.58714534416920   -2.07403059537462   -7.22784191295052
H           2.43985340434291   -3.80407728648426   -9.16737781901604
H           7.49523668401965   -9.38143250066326  -11.78978028745385
H           7.11123319868717  -11.52183485419425  -13.19711348409464
H           8.66960409973705   -5.00270421514434   -8.23499572962668
H           8.74090088385562   -6.32761544924180   -9.42842381176684
H           6.82267922266931   -6.21540562188651   -7.04739743390840
H           8.29949140783438   -7.18801287614340   -7.12642342848132
H           6.95106998825304   -7.54075198554600   -8.21405726046534
H           7.55549196848197   -7.21362521574652  -13.25655311149484
H           9.16977919726640   -7.20893113749219  -12.50183061577029
H           7.24843116368312   -4.82091288271710  -12.63182391260867
H           8.71130207279950   -5.03044395123985  -13.60299321382434
H           8.83171975007310   -4.80571098275774  -11.85096252161436
H           2.60964817249785  -11.05070501238956  -14.80668306722559
H           3.16701577962172  -17.60253159806449  -17.63434492627806
H           6.84106219972520  -14.81068154713556  -16.54711224923183
H           6.96344699603067  -19.83311330394815  -14.68882785704586
H           8.38101003628826  -19.31748127358642  -15.61837304955346
H           5.82002272359884  -20.51520346011959  -16.79533196052330
H           7.35472177202045  -21.36872313799072  -16.59596482012208
H           7.23596186613082  -20.01917034340996  -17.72929800941415
H          -0.35815876661893  -12.83510100754684  -18.05736737839938
H          -2.50647389881037  -10.55854348109029  -13.72205949703572
H          -2.99282528180813   -9.85316040245100  -15.27210892225816
H          -0.52121041481281   -9.04940568847467  -13.64706158323376
H          -2.02492492889277   -8.12576635218970  -13.75357637924939
H          -1.00844555844106   -8.32844580190248  -15.18359656728057
H           2.06315797575311  -19.45997510153742  -18.70400132553055
H           0.35781868802230  -20.99705161115849  -19.89366295621427
H          -4.24524738922619  -24.07304489286967  -20.68030981456198
H          -5.07353287858373  -25.28163383842179  -18.54110481049029
H          -6.18788655959996  -23.61053345631831  -16.85617932626630
H          -0.05439401300097  -22.96673380777906  -22.50102189563810
H          -1.34205356935772  -22.02438601943347  -23.29863192049947
H          -1.82402531663720  -24.50780402742829  -21.57573702124838
H          -1.77762363389150  -24.50182562625519  -23.34622065495242
H          -3.04532695931793  -23.60903351798878  -22.49652427497620
H          -5.09693457362978  -19.19317401326820  -23.04294100228995
H          -5.69197676740376  -20.86350024954399  -22.97296587855421
H          -4.11469702863339  -19.63050353378115  -25.30742308232979
H          -5.86590480138442  -19.88793013244805  -25.29179326115354
H          -4.76365273412140  -21.27280210906498  -25.26882834265748
