251
 SCF done       -458.820601758999          0.000453439303
C          -4.17091679168699    5.28617009986766   10.13016504355075
C          -3.56814403947559    5.77983943678881   11.31044129312009
C          -2.18907114967195    5.87956734443407   11.48349195430600
C          -1.38670742633487    5.51124108989240   10.38476337934161
C          -1.99432986296662    5.01027013977643    9.20828892373355
C          -3.36945204071126    4.86327547408876    9.05463923782159
C          -5.59374271738768    5.31156684978165   10.21484826111324
C          -6.04050186026019    5.76741253471706   11.40236821492794
S          -4.77395076531603    6.20140373669073   12.49670468049763
C           0.02392802911692    5.59048019180356   10.25635073030471
C           0.49238766387116    5.13246601095930    9.05835950200676
S          -0.80018347931398    4.58038559202916    8.01768790146166
C          -1.59401440783389    6.31984879279336   12.72713790938986
C          -0.49108625423503    5.80869892004866   13.35291345525139
C          -0.17186199878284    6.49247326960384   14.53855085207948
C          -1.01789670499647    7.52328836714508   14.84884683521388
S          -2.25319816720440    7.65551763385103   13.63717144803682
F           0.89216695582418    6.13664067894796   15.28644663378862
S          -1.02407068373081    8.65897771893869   16.17670251243353
C          -0.17419129964613    7.69914685639091   17.49491310807461
C          -3.93352927533774    4.29146335494204    7.85040458764836
C          -4.94894577706236    3.38598789905502    7.71710534370225
C          -5.15599179590999    2.99829494480170    6.38146959365644
C          -4.32049128960016    3.59586654795951    5.47419790332175
S          -3.26333076799831    4.69990641345798    6.29373180284988
F          -6.08651104901588    2.09238789671764    6.03820735068243
S          -4.30917222665332    3.35776039595522    3.74591497506168
C          -2.67912145896114    4.05940352660724    3.29945507963422
C           1.83015987994397    5.07104470209237    8.57319349367247
C           2.98996428913322    5.51707937813936    9.16954136284221
C           4.12274449195065    5.30697268214463    8.38415467697884
C           3.85533661228112    4.68935183824494    7.17840895846431
S           2.15323280236754    4.38295273787216    7.01097325339347
C           4.74733278162814    4.30238523719055    6.12254995336432
C           6.14068735431029    4.38883232317297    6.18416799792004
C           6.96986375655779    4.04185193506699    5.08287416803339
C           6.47374625794763    3.45974897854525    3.91602513888014
C           5.06182478460465    3.35300612209987    3.84061922408396
C           4.21627267539102    3.78861110396888    4.91226702597311
O           6.71929014225189    4.88796781956658    7.31895729982536
O           8.31722194944868    4.31429779303468    5.21501773217715
N           4.36219506171843    2.87708094641308    2.81536825350815
S           2.79353651373091    2.96672337421642    3.15953244060972
N           2.92837331497473    3.61649298826726    4.62679115435535
C           7.28323273070584    2.96754803760344    2.83728534230397
C           8.64812860645447    2.76370814386173    2.79710212594996
C           9.09530841959963    2.22723282063250    1.59188155820902
C           8.07936159405078    2.00085479531162    0.68917172518653
S           6.53758099065649    2.45878349566216    1.34849718317446
C           7.63102898378189    4.03519246976939    8.00578263228144
C           6.93615746457691    2.80977985072962    8.58836576690560
C           8.74753722655270    5.48791157290853    4.53207621998568
C           8.17403468419710    6.76546657812638    5.13118888044287
C          -1.51973771125471    3.19059400474913    3.74639166771347
C          -0.41085573714075    8.37984920985697   18.82803859690896
C           7.63514528911501    0.43744603167051   -2.64317567485559
C           9.05055821295639    0.41619445052266   -2.71600921351173
C           9.75598601262290   -0.12583758835418   -3.78297429823367
C           8.99073714163217   -0.66220489140363   -4.83751301190947
C           7.57722406862949   -0.66988122895057   -4.75534666002859
C           6.86943722113196   -0.12443845487303   -3.68648263006561
C           7.18400130046416    1.04413681162976   -1.44581943330923
C           8.19044457553458    1.42408949781675   -0.60610282128160
S           9.77210818897717    1.08506071756569   -1.27965524723140
C           9.45540448971565   -1.26131236083040   -6.03290703150743
C           8.46214484314753   -1.78055398146337   -6.81196630284804
S           6.87912747516522   -1.50148971709794   -6.12104974876531
C          11.20375773503803   -0.18313193183744   -3.79921340745086
C          11.99875512282260   -1.22989983730596   -4.17344317413564
C          13.36927197178612   -0.93170029811035   -4.07811800805244
C          13.64918547403005    0.32877341644269   -3.62371572753658
S          12.17188784289422    1.18103813717046   -3.30349487787106
F          14.31015584103872   -1.83617858874915   -4.41451369311043
S          15.17483192594346    1.13892773488141   -3.35783602475810
C          16.25153149503249   -0.27108367369161   -2.87061906511804
C           5.42257478086658   -0.15687499392872   -3.66345745773899
C           4.57202124275692    0.01252215380102   -4.72175482648219
C           3.21979614104239   -0.08115533081980   -4.35405191774988
C           3.00337535070894   -0.35684757532300   -3.03043281635210
S           4.52265888298799   -0.48753551397310   -2.20506765143756
F           2.23383008954092    0.09702687815162   -5.25240412841204
S           1.52726759728329   -0.52584332862664   -2.10668165330069
C           0.41107227749364   -1.34611499338797   -3.30545104137199
C           8.63056769518122   -2.52154908054643   -8.02030011426330
C           9.72310688330644   -2.49960409370517   -8.85919739434372
C           9.63822695875158   -3.42976116073689   -9.89495968966363
C           8.49107503993466   -4.19351251088368   -9.85546598599978
S           7.45841081544052   -3.69039246318957   -8.54901085027599
C           8.13206266988866   -5.34356623511489  -10.63829572028683
C           9.03344580829218   -6.06176878993950  -11.42761518183698
C           8.66310169073940   -7.26697787989490  -12.08380637171273
C           7.41013324366325   -7.85518053969674  -11.92348257581588
C           6.45733506561691   -7.09963712760132  -11.19848828436109
C           6.81540266057286   -5.86308539469610  -10.56703278958151
O          10.29644649818165   -5.56632821359754  -11.59992821892273
O           9.62102842284905   -7.85405066595317  -12.88369709619867
N           5.18555569239500   -7.42238014612322  -10.98070835798502
S           4.50346194006586   -6.28015470043260  -10.07666974483547
N           5.78973697583660   -5.32677266123707   -9.91107431500330
C           7.09034833743101   -9.18224191186368  -12.37793733509874
C           7.96569632946784  -10.22883434032093  -12.57601230339568
C           7.33003872667369  -11.42755030290588  -12.89322340646071
C           5.95934123505563  -11.31239767439289  -12.96290058252924
S           5.44360306919343   -9.69195794228858  -12.59945222736460
C          11.38457889319114   -6.37456325677491  -11.16177450790426
C          11.38266092803444   -6.56686296489780   -9.64954060781187
C           9.34263618716250   -7.82211857661617  -14.27826160974345
C           9.34680936355111   -6.40363427589172  -14.83381005700564
C           0.91630402823430   -2.71568474534129   -3.71041469878331
C          17.48755889512408    0.26736174091720   -2.17909152555987
C           3.08220767640908  -13.51298731855228  -13.78777550647263
C           3.98957260433094  -14.58978306388308  -13.63314323487268
C           3.62623535669876  -15.92807029326529  -13.75199519042363
C           2.28702402033048  -16.18528011251567  -14.10733487548247
C           1.38885440440098  -15.10893154306877  -14.31120015712963
C           1.74123461697821  -13.77252160062380  -14.13826770816240
C           3.70865759881368  -12.26041696999700  -13.56583519130344
C           5.03138081041766  -12.35370315610230  -13.25049079764232
S           5.58032410360803  -14.01824335790733  -13.21705238219515
C           1.66857256848155  -17.43879936723722  -14.32549084777302
C           0.34736835789017  -17.35378474663213  -14.66113413219247
S          -0.19810901267511  -15.69310263929503  -14.73518771786055
C           4.57832552365485  -16.98266463678232  -13.47549153254099
C           5.91218016924162  -17.01273093157417  -13.77382152428070
C           6.55190867151482  -18.17107680751187  -13.30044254984210
C           5.74153275029602  -19.03096358550988  -12.60957351573192
S           4.12631376585097  -18.40055314840817  -12.56029478943933
F           7.86021915539471  -18.39538792873079  -13.52798558358409
S           6.07720463609293  -20.57006483937809  -11.85179855321006
C           7.82929002281714  -20.34554629035344  -11.34107746303686
C           0.75964029664358  -12.72124207991148  -14.30383926508727
C          -0.23511769319754  -12.65104024727574  -15.24016319339004
C          -1.02782806956226  -11.49944342034046  -15.10495654382485
C          -0.68828862912667  -10.68944123173968  -14.05471956297974
S           0.67286340565323  -11.36004622710580  -13.21532120090798
F          -2.03422669197299  -11.23437805594737  -15.95783829288285
S          -1.35555340038801   -9.16594897767709  -13.51104541414015
C          -3.14991667732061   -9.42106946618041  -13.78014800448543
C          -0.54035841597923  -18.43009416533861  -14.94965534920906
C          -0.30168561460276  -19.77648157916205  -14.77383603539029
C          -1.37420657806809  -20.57716591139425  -15.16354341930500
C          -2.44890810755774  -19.86015864904489  -15.64498255036848
S          -2.12802996755701  -18.15468352947689  -15.60187493005430
C          -3.69752590368205  -20.35786610752701  -16.15668228009532
C          -3.93831527295146  -21.69018010902057  -16.42157691535477
C          -5.21869929078226  -21.82744910653150  -17.15804454845609
C          -6.29871383029946  -21.21715433311343  -16.47337597035861
C          -6.14075144005754  -19.77762278103767  -16.65543196953962
C          -4.76286417029475  -19.38933569609197  -16.42669844294075
O          -3.06230671684848  -22.66986160446458  -16.16192951785688
O          -5.05274559358032  -21.59839126447756  -18.49576487240794
N          -6.95031365434583  -18.76399892978499  -16.78145651244899
S          -6.08726649004938  -17.38427163522810  -16.64633792035586
N          -4.62953431566399  -18.08639122888793  -16.40690376856548
C          -6.87810656797787  -21.70019284298546  -15.27757916943965
C          -6.99662961287231  -23.00241203763862  -14.83443633157855
C          -7.69308505820051  -23.11043175801293  -13.62127768794207
C          -8.11186522101947  -21.90928625427768  -13.13829390123340
S          -7.66248627097305  -20.60330149662060  -14.16476254282654
C          -3.08518131174294  -23.81010477359346  -17.01809179920590
C          -4.24758146273374  -24.75244663095658  -16.74336502745092
C          -6.15596631836927  -21.12256253768490  -19.24260630121156
C          -6.07725799552751  -21.69987462510855  -20.64694798513612
C          -3.69700196864527  -10.55416458741048  -12.93627424221144
C           8.17139094886844  -21.37435697072495  -10.28252634033687
H          -6.24006119790689    5.02119403902180    9.40753677332197
H          -7.05686146009581    5.88963503256983   11.72184772553876
H           0.66368575875649    6.00055719108682   11.01486227997998
H           0.06307657652295    4.95428073072344   13.01105998666561
H           0.88691230629634    7.65926706036813   17.25405439194742
H          -0.59400664703340    6.69423793199183   17.48130196270022
H          -5.49379843849836    2.95707960648039    8.53766943873314
H          -2.62616791837419    5.05942247949043    3.72962966888384
H          -2.71684287224063    4.13714642901196    2.21327554688638
H           3.01566667496581    5.98700805306254   10.13627229120575
H           5.11056696583468    5.61030716865499    8.67372907372645
H           9.29480450927034    2.97004585633679    3.62918400279227
H          10.12445498083757    1.99703690667059    1.37896875626125
H           8.03360459798201    4.66467538408599    8.80330946200196
H           8.44646538248647    3.72811726756193    7.34444044384798
H           6.11773737966900    3.10866278354139    9.23922958453230
H           7.65020304296156    2.22474979480198    9.16124855048700
H           6.53434481105997    2.18869348423080    7.78992084603488
H           8.48765949010694    5.41943249076641    3.46766752510210
H           9.83543037744523    5.47377674462113    4.63379876268731
H           7.09446876269194    6.80011681261972    4.99872934294151
H           8.61628355213054    7.62660286337917    4.63793039644754
H           8.39058429296162    6.81242275913124    6.19535787950621
H          -1.49986942476745    3.09147444198657    4.82903941635317
H          -0.58208889054133    3.64519189685992    3.43354380481200
H          -1.59407433788157    2.19979831272097    3.30460444310898
H          -0.01362131673027    9.39228337639991   18.81533752091692
H           0.08563647381789    7.82006282994219   19.61765722103627
H          -1.47467760725832    8.42932180699212   19.04886526654200
H           6.15115585823843    1.19596274416798   -1.19257911467179
H          10.49330071838511   -1.31859433188481   -6.30103321666350
H          11.63595644195571   -2.19460198285461   -4.47634032619204
H          16.51062191464914   -0.82658528148611   -3.77057668362799
H          15.66605088002997   -0.90223362495238   -2.20342839483195
H           4.87895920771387    0.24826968785247   -5.72340267417338
H           0.28417529102898   -0.68790392486744   -4.16230867287510
H          -0.53248414356989   -1.41519642864217   -2.76461476777008
H          10.55019063371913   -1.82470586172889   -8.73042649356318
H          10.38644305192121   -3.54452507345424  -10.65552380247820
H           9.02959843658182  -10.12625569593430  -12.46453451791240
H           7.84488922594189  -12.35547106205297  -13.06943932780201
H          12.27037735110620   -5.81783007577331  -11.47757300933053
H          11.37220247077548   -7.34536029068730  -11.66527003724947
H          11.39159700615577   -5.60491691954659   -9.14232411571264
H          12.26182006030966   -7.13275150717267   -9.35425621524985
H          10.49354770486200   -7.11317646870701   -9.33994723767183
H           8.38236543523974   -8.30970240483788  -14.48737875888960
H          10.14502128907912   -8.41356932562635  -14.72539247696950
H           8.52767492422874   -5.82698220093955  -14.40821673686539
H           9.23241314787992   -6.43345845233355  -15.91369703147453
H          10.28187322893857   -5.90703654486212  -14.58630391254854
H           1.85911044974030   -2.63761454777682   -4.24808712046378
H           0.18904928399935   -3.19369988544991   -4.36319161966202
H           1.06665651533434   -3.34272924224571   -2.83416836844022
H          18.05027412456230    0.91198462469330   -2.85022908709820
H          18.12524670162931   -0.55913424752449   -1.87319529639851
H          17.21231282673788    0.84270019256809   -1.29816646819357
H           3.21153089205977  -11.31154192570546  -13.64741378608797
H           2.18679356745370  -18.37614934472588  -14.25966349119210
H           6.42756908195390  -16.26879575114741  -14.35157205322155
H           7.92106799429591  -19.33152354648711  -10.95430578166258
H           8.45587648986501  -20.46104566402538  -12.22423870596576
H          -0.38106597716104  -13.35891124826563  -16.03425013528899
H          -3.31758477720997   -9.58562488314290  -14.84241153658364
H          -3.58706505399205   -8.46512235212198  -13.49280672036145
H           0.61200046878025  -20.16604321682910  -14.36291960272752
H          -1.37753673357946  -21.64742739488936  -15.08704497203466
H          -6.61480679834775  -23.84475716828511  -15.37924796403212
H          -7.88337022447844  -24.04664523480168  -13.12660781906008
H          -8.66346451187958  -21.70524741273853  -12.24274864282364
H          -2.13460510057414  -24.31018284314368  -16.81649655102743
H          -3.10375788897659  -23.47923182625321  -18.06255018380433
H          -4.28096262804678  -25.00803344661495  -15.68692981126811
H          -4.12167212263957  -25.66099445770502  -17.32572291405394
H          -5.18596694280730  -24.28028913297142  -17.02811850383310
H          -6.12577607279050  -20.02630026759548  -19.27730522789722
H          -7.08593377124409  -21.41603646777809  -18.73310019606531
H          -5.13329108559491  -21.42331944774751  -21.10888281327838
H          -6.89461834697469  -21.31226389329282  -21.24754253231347
H          -6.14371160354611  -22.78437794075927  -20.61295754544780
H          -3.25440492520856  -11.50412651652429  -13.22942450788126
H          -4.77428501571271  -10.62248734456251  -13.07199709361016
H          -3.48634459331277  -10.38299664683182  -11.88275151189854
H           7.53284929938405  -21.25288835394565   -9.41042616338674
H           9.20849416829199  -21.25378663158190   -9.97729212161788
H           8.03703630761468  -22.38121814847905  -10.67119017807695
