185
 SCF done       -328.980063434329          0.000900325338
C           2.15685275695219   -3.58496775480602    1.00957808630889
C           0.80330813214261   -3.96834590609869    0.97465177558638
C          -0.15950868264700   -3.12730399795806    0.36782410964756
C           0.14749172843061   -1.89662665132156   -0.20069879953224
C           1.50148846266582   -1.51462182462824   -0.16986238837892
C           2.46563142832652   -2.35556884166564    0.43427849502320
C           0.19837781579329   -5.13637194759321    1.52492409333956
C          -1.13593378840585   -5.17877538191238    1.33518846051746
S          -1.75879640086658   -3.81184994663308    0.48128447717127
C           2.08603571290145   -0.36567897119007   -0.75727239622880
C           3.44224164145446   -0.31535723295340   -0.63057237727080
S           4.06574650091504   -1.68195033111286    0.28068744933766
C           3.20034098164649   -4.41259728465814    1.58168794224783
C          -0.85201098985413   -1.04420772797334   -0.81353175062870
C           4.28818499777874   -4.00822661988757    2.30343583827433
C           5.14975476273031   -5.06537606708618    2.65654894186330
C           4.73595121548038   -6.27870049715301    2.20113908503660
S           3.24820144244338   -6.13516540885424    1.32415710090955
C          -1.01751058041578    0.30379639535288   -0.66535420322740
C          -2.07670251282526    0.82232225351545   -1.43618229190461
C          -2.71827047201744   -0.12132665683319   -2.17794192528071
S          -2.02364748226211   -1.68869234836280   -1.92760732219113
C           5.40423128157222   -7.60273168268621    2.34136202682556
C           6.02378253150643   -8.05413974527456    1.01721636398789
C          -3.83217869199535    0.06308334897303   -3.14994220034587
C          -3.31598406802464    0.02371634695829   -4.59032304392246
C           6.33059802184970    2.26244098948558   -1.19866636308792
S           5.79555602284335    0.97646142730348   -0.15762542233893
C           4.35100988413039    0.68555275030910   -1.08263069362420
C           4.29941657756917    1.54451154046974   -2.17697905593708
C           5.41713186378478    2.43090586956684   -2.21791555435450
C           3.46337650903472    1.73449440739425   -3.31869966262413
C           3.90691639425454    2.73452956341140   -4.14171511478009
S           5.37712402264475    3.49798760922054   -3.58485653149807
Cl          2.09617586954749    0.78409546167636   -3.69565088997728
C           3.39345360775054    3.26451548277846   -5.40514379761112
O           2.27222027569161    2.66570519075915   -5.81502603638077
O           3.95576173366343    4.15198259168648   -6.00400812070522
C           1.70406090042285    3.14160282999961   -7.03547822431252
C           0.86735812166851    4.39220635269349   -6.80881459477213
C          10.05989620311721    5.48514491238385   -1.93308017943299
C           9.28279253540382    4.47634673689625   -1.32837159293190
C           9.72568789703104    3.83482087511971   -0.14538931088171
C          10.92081959522456    4.15290085337043    0.48711458460602
C          11.73493561085741    5.10782964704998   -0.15842777866555
C          11.28911203917186    5.74722048752053   -1.34096376804330
C           8.05181738293226    3.95417521336418   -1.78283582866906
C           7.54058660952000    2.97389348737498   -0.98049898229509
S           8.57111692170255    2.64297245779526    0.39511428096646
C          13.03409910576054    5.52633443862173    0.21466123482981
C          13.57703601530059    6.45296112616108   -0.62747926339556
S          12.46962250016428    6.88782396042932   -1.92133954059063
C           9.60097913915313    6.20282097924990   -3.10403978982068
C          11.32685830479415    3.55362584889346    1.74135209044753
C          10.31445664490615    6.58291345060280   -4.20604044839360
C           9.53653792688156    7.26060238456138   -5.16529361399148
C           8.23525872085176    7.42167701097851   -4.79782185727249
S           7.94494177526846    6.73005766680495   -3.23852731403747
C          11.89438930806047    4.16962797824547    2.82204635039941
C          12.16653235250633    3.28819578651516    3.88612582033815
C          11.81276591532288    2.00000307307424    3.62541108700034
S          11.12233507264738    1.85170251395437    2.04311102211292
C           7.12814036670662    8.07798559350371   -5.54873053676244
C           5.86212587662854    7.22300003677177   -5.57169229998527
C          11.99564530988109    0.79655512050855    4.48425610914632
C          13.17830203564571   -0.04828207195105    4.00467666276847
C          16.66482048723482    8.84418414873449   -0.85490351316009
S          14.97746700147947    8.69364526183192   -1.25930886036017
C          14.84698737545502    7.09622707410647   -0.57718677975757
C          16.07759725816612    6.69041665325858   -0.06783544327640
C          17.08288448425055    7.69238518069410   -0.22763716524302
C          16.63761811272877    5.51432100273183    0.51458211318454
C          17.96923789440470    5.64786910919058    0.80633467763292
S          18.63302169859893    7.20802665696444    0.37736996589595
Cl         15.79254395205056    4.05347134464025    0.76986416985809
C          18.93372357814330    4.72183266414741    1.40287051367869
O          18.40528515758873    3.53583087479150    1.71809186083936
O          20.09120640074219    5.02370564688459    1.57591343707280
C          19.28302915773210    2.58855430793545    2.32762719246408
C          19.43131866862003    2.84785482545893    3.81972815896546
C          17.79612291461229   13.40075397233754   -2.57852658764142
C          17.93572208032079   12.12376975206687   -1.99618566545111
C          19.20459486910798   11.68371765586078   -1.54436753255616
C          20.36102471250199   12.44865779052038   -1.63771303998832
C          20.23044573771233   13.70682320511314   -2.25838257379326
C          18.96187832386485   14.14907939677083   -2.70638297619268
C          16.94032590821537   11.14004416249643   -1.79515371253658
C          17.40464145418306   10.00962161973126   -1.18276114853512
S          19.11423758159189   10.09545244498584   -0.82849086973023
C          21.25328822099800   14.64873488105810   -2.53308165769995
C          20.80126102508400   15.79159469702714   -3.12325475264174
S          19.06719749764663   15.74377776038529   -3.39896676271638
C          16.51660207618769   13.92376085155003   -3.01065568734491
C          21.62648254308912   11.98826404749487   -1.10530213167030
C          16.24232561725611   14.68328005492457   -4.11380238786128
C          14.88815326968258   15.05795082905791   -4.21243704546269
C          14.12281782578676   14.60778548629190   -3.18122604365585
S          15.07190005744517   13.68436883000722   -2.06449727750356
C          22.54971162994758   12.69077501010689   -0.38269212312853
C          23.65704967237772   11.91355402239232    0.00947068268214
C          23.59172312883083   10.62268791573175   -0.41815803291945
S          22.13697876481359   10.33575333278833   -1.31228802906516
C          12.65861101170473   14.77554375766079   -2.96475302263520
C          11.91058613615258   13.46030192315244   -3.19214072507412
C          24.54178364775999    9.50496677067463   -0.16131553617995
C          23.96917948628761    8.52494267974928    0.86530136772873
C          22.26519636354224   18.86411092433505   -5.01614802490083
S          20.94067721780347   17.77059221152147   -4.99397442321206
C          21.53444905772502   16.92346783929293   -3.59385771213354
C          22.71663904562682   17.50449025042134   -3.15634370806473
C          23.11731150829212   18.60035370423094   -3.99070343358949
C          23.61687699682311   17.35790310461472   -2.06093596109173
C          24.65206475482197   18.25315176133530   -2.09416394662270
S          24.59393373277060   19.34928014915712   -3.45885479390050
Cl         23.40757676322091   16.24471556536330   -0.78870067155419
C          25.78815717470944   18.45669231610715   -1.19354076266374
O          25.78287329057166   17.62920925073572   -0.14370642287924
O          26.62814495529019   19.30145147443562   -1.39572891458677
C          26.87200147294251   17.75190633110151    0.77160591182137
C          28.09294917663308   16.98381112014072    0.28768036098674
H           0.74334773055990   -5.90028455640283    2.04744032067593
H          -1.82084848515048   -5.94183134506435    1.64952997767306
H           1.51310060208645    0.39467023871460   -1.24982041793992
H           4.45166972361950   -2.98903758488289    2.60403788282890
H           6.04730088531424   -4.92767455223888    3.23311563307420
H          -0.42337197405464    0.89831642748549    0.00608236787084
H          -2.35444828407657    1.86181431039477   -1.43685124066593
H           4.67796055186806   -8.35052752385944    2.66976481665045
H           6.18239054617347   -7.52296883767371    3.10337766112123
H           5.25366696274347   -8.15057993851292    0.25531960115899
H           6.51537012599684   -9.01603677295916    1.13913538974168
H           6.75783893789591   -7.32762541498416    0.67647460923766
H          -4.31260016371960    1.02497254183591   -2.95779898365037
H          -4.57516395631132   -0.72606840811647   -3.01381273920155
H          -2.57625338457135    0.80553752891036   -4.74810469142769
H          -4.13499279454859    0.17182610224078   -5.28972536418006
H          -2.85069892622708   -0.93755609919409   -4.79629828617119
H           1.09009959267049    2.31501670749624   -7.39899883885731
H           2.51198176736488    3.34970103044762   -7.74468681422868
H           0.09795332020117    4.19988183661433   -6.06462969657819
H           0.39513940540444    4.68733679780318   -7.74141130804668
H           1.50164984413373    5.20435787563414   -6.46174437396492
H           7.56812195196796    4.26946951258570   -2.68690611193161
H          13.54452390312653    5.15027124793128    1.07885515491239
H          11.35355504391256    6.34617261695774   -4.34760663957807
H           9.93103531350525    7.61181909753757   -6.10238808925574
H          12.06979109845501    5.22965546962616    2.86967275513810
H          12.60518252471137    3.60227779635091    4.81698648439757
H           7.46968455543972    8.27221257821381   -6.56802406043310
H           6.89760563411644    9.04297111930374   -5.08462718721633
H           6.05346576283725    6.25219212239828   -6.02137523268307
H           5.08295302541565    7.71898237892251   -6.14453971986900
H           5.49676156500329    7.05990750435700   -4.56031691646473
H          11.08861531766135    0.18812682303087    4.46304451080969
H          12.16867313063985    1.12071345490087    5.51281008045138
H          13.00683747002151   -0.38980129000009    2.98644215088694
H          13.30820261594858   -0.91595677481642    4.64670775862725
H          14.09369765408311    0.53892525339507    4.02215380707415
H          20.25927613795577    2.64233197225389    1.83479849391511
H          18.82065467370742    1.61762802523686    2.13841109738419
H          19.90681522271220    3.81197877849465    3.98275333258770
H          20.04751561893426    2.07163972050440    4.26416148893897
H          18.45567633412236    2.84761426185218    4.30024870526711
H          15.91460340848149   11.24343106070782   -2.09876677267724
H          22.29147564328979   14.45410276959836   -2.34587348589326
H          16.97837662614569   14.93496593491780   -4.85569167924935
H          14.49660122089079   15.64733605267770   -5.02257185764040
H          22.41648903343390   13.71948277367164   -0.10093904518829
H          24.47458864818051   12.30181827731674    0.59109149055364
H          12.28728502966544   15.53593936112833   -3.65500247693686
H          12.47325362870720   15.11965180359493   -1.94407079460114
H          12.07257647468040   13.10334118155058   -4.20670870169956
H          10.84374647415172   13.60190219122864   -3.03905185830633
H          12.26382061672736   12.70036017421549   -2.49868732862753
H          25.48326979798099    9.91829521314200    0.20700580158163
H          24.74213285233559    8.97037377516155   -1.09285105060305
H          23.77034805920106    9.03475084510344    1.80482851134830
H          24.67297979010734    7.71750524467928    1.04957101137709
H          23.03704608927249    8.09801855261638    0.50273625331412
H          22.33193212843924   19.62169710795749   -5.76867703474492
H          26.49459071682238   17.34431429727761    1.71164281150814
H          27.11476317345728   18.81249180650551    0.89278750567700
H          27.83748714889740   15.94092604565963    0.11568374921361
H          28.87784239793434   17.03986715916119    1.03643035727561
H          28.45969783425644   17.41616558233860   -0.63998995055244
