248
 SCF done       -433.432710453922          0.000928302267
C          -2.84352691290548    8.63841097463088    4.91536016161220
C          -1.98225477651915    9.74496048601493    5.10262820451956
C          -0.61731402958431    9.69912676546113    4.85756352390929
C          -0.10337270799378    8.46892465646717    4.41778716929740
C          -0.96961748048719    7.36677845514240    4.21282810370587
C          -2.33204362958230    7.41276936294202    4.46422987585485
C          -4.20387380404754    8.97934456194258    5.18074476176985
C          -4.35990901463414   10.26469826074355    5.55468761990208
S          -2.87621418765118   11.15592639177571    5.61419572915603
C           1.25125860915799    8.13035438648114    4.16803785048856
C           1.42758903351139    6.84237714790500    3.75797282351216
S          -0.08919826078990    5.96179435675147    3.66675899356062
C           0.24007125191912   10.88061521434058    5.00950118374445
C          -3.19383385999439    6.23516842053606    4.29299219763357
C           2.64995517066974    6.19604634544316    3.41563419727855
C           2.81996946065680    4.96907497984093    2.81275134676092
C           4.15785047601377    4.64071623384096    2.60001904865634
C           5.03610463067858    5.60277113274648    3.05338465667564
S           4.17679295782254    6.94920867579014    3.74588620403566
C           6.46610108028630    5.55277261843771    2.99790726666277
C           7.30666385894820    6.44851343922070    3.64534564900704
C           8.70511414258637    6.37212550678130    3.61392682878096
C           9.41318525932739    5.41114116695402    2.90511375827679
C           8.58354575045167    4.49332602837490    2.21231545025305
C           7.15859368135477    4.55183840122109    2.27008180580663
F           6.77712711421889    7.45487928280598    4.36936554540197
F           9.37377330242152    7.30735554440581    4.31829060640069
N           8.90548926127735    3.44911444275464    1.43692134454975
N           7.75930914807581    2.94568150202946    1.07412408995637
N           6.69093532258618    3.54008218946164    1.52605158916652
C           7.67960842674769    1.76608430094963    0.26081535800773
C           7.69273061592227    0.51532607426605    1.13477259002101
C          10.84185266264753    5.32303587220322    2.86751961541719
C          11.59935192828996    4.52642207397840    2.03460839197955
C          12.97116076562975    4.65102720090637    2.24697786278178
C          13.28753416344925    5.53018488624957    3.25948917521603
S          11.85954138195093    6.24127132109934    3.94068673415834
C           0.21901456627424   11.63933835707724    6.17295431227381
C           1.00812456359758   12.76742167901539    6.30780594565130
C           1.83626414531574   13.16662888129849    5.26384637052273
C           1.86043452851281   12.40759928769085    4.09109096698601
C           1.07757208518078   11.28306052693210    3.96843124004038
C          -4.00495720550274    5.80000586641133    5.33405377674536
C          -4.81200717324015    4.68492355255822    5.19729455667260
C          -4.82499793820241    3.97948860849918    3.99832537636715
C          -4.01017269722294    4.41225412071932    2.94971486867288
C          -3.20490521504206    5.51883752664301    3.09731449374081
O          -5.57851603213721    2.87679475133812    3.74775195885326
C          -6.42761727319996    2.38064603664183    4.76296224463647
O           2.64422471108253   14.25771341596120    5.27787969363826
C           2.65509878478812   15.09076521559570    6.41971688592658
C          -7.13632916131048    1.15217420101850    4.21442408464108
C           3.61705404925665   16.23653146280695    6.14620123950224
C          16.26400064742464    6.67576255877936    5.14691045597721
C          17.03704683366601    6.01868253792060    4.15719187391290
C          18.42205205673307    5.98439774495826    4.17272328656401
C          19.05022043147518    6.59483584477249    5.27186131444229
C          18.27517412093114    7.22235018884498    6.27934102513249
C          16.89297879637217    7.30667985716503    6.23415220910979
C          14.87443516334695    6.55791007455756    4.89685401862962
C          14.57764246146255    5.85598157535036    3.76557041767583
S          16.01981865496307    5.30302678408512    2.93181823528852
C          20.43641557442064    6.64438035134038    5.56230163004613
C          20.72985372103626    7.28604530474815    6.72950777470073
S          19.28938184854289    7.88057321958722    7.53839601147436
C          19.20269925205065    5.35139551488829    3.10232502881026
C          16.11218804164885    8.01117455125447    7.25898811106595
C          22.00816111626688    7.47108237876462    7.32820695322936
C          22.28303440301679    7.92118603421979    8.60113674680934
C          23.64440821609855    7.94008064920206    8.89663086552249
C          24.43830173627682    7.52294301592190    7.84859443185731
S          23.46720212516713    7.09130935339600    6.46947950251083
C          25.86724730914771    7.42975768822086    7.84653943745114
C          26.64201983109340    7.21464295394688    6.71458973319648
C          28.04193823087385    7.15029746924552    6.72599371479230
C          28.81353698799496    7.26058775780279    7.87508317749908
C          28.04990435493633    7.45428552275957    9.05425413187763
C          26.62656938891298    7.55368573169547    9.03776850317612
F          26.04163496432487    7.07137907534312    5.51610603940744
F          28.64675963744509    6.96130502642209    5.53658766170033
N          28.44192165704184    7.60199964645516   10.32731615764831
N          27.33409577152946    7.77299053244073   10.99262469946055
N          26.22933406608082    7.75524703582973   10.30155370468279
C          27.32739142554129    7.91998096893384   12.42002743956658
C          27.16335274164061    6.56069802777410   13.09362753749948
C          30.24409215773533    7.20354341841629    7.90101380318456
C          31.04144721708172    7.12138774207711    9.02433386689950
C          32.40357960910631    7.11399696877912    8.73639210269726
C          32.67578291874879    7.20307773364934    7.38605210573722
S          31.21385883755507    7.26868356834282    6.45851081445368
C          20.22863180667905    6.04543098570192    2.47133280434189
C          20.97217627284700    5.46463986711777    1.46036616444558
C          20.70182326240584    4.15974072881898    1.05997240823639
C          19.66945319088769    3.45962275666243    1.68866499464482
C          18.93103977860491    4.04748264778625    2.69021440975391
C          15.16910294777581    8.96634196685338    6.89710842707185
C          14.41611432549133    9.62887684033402    7.84920486606953
C          14.59286966338389    9.34134608191464    9.19905243793508
C          15.54676810740298    8.39006641845741    9.56832221962301
C          16.29478103300104    7.73878161298265    8.61415301351414
O          13.90440842244236    9.91658333272543   10.21825651090436
C          12.89579170644019   10.86160344582523    9.91859717838680
O          21.36737529868660    3.48663484408706    0.08670993372155
C          22.43631506941584    4.12670220763516   -0.58244357822391
C          12.27114648936724   11.30234514016189   11.23299838649118
C          23.00058597315712    3.14470891317982   -1.59696860890990
C          36.27231954064634    7.30286358439223    6.49166307264893
C          35.85044430902204    7.62937811106214    5.17814260308452
C          36.73005748311461    7.90837907586081    4.14468841211236
C          38.09990985304513    7.81684826084438    4.44503538407882
C          38.52128039699838    7.47232230205043    5.75399055303525
C          37.64204100781343    7.22619817452186    6.79598967051597
C          35.17491333871976    7.09419120723682    7.36248704885336
C          33.95867179179467    7.27807099415065    6.76816254276279
S          34.10991873914797    7.69504059562892    5.07177717359900
C          39.19762467572396    8.03296826156852    3.57634168807680
C          40.41389303711298    7.89986238849720    4.18457546107578
S          40.26139731140255    7.46804149409169    5.87713428164770
C          36.25907009188604    8.31653315561707    2.81464601666379
C          38.11533736854415    6.92352287020587    8.15320399195705
C          41.70149795166615    8.08636005055917    3.60215731111380
C          41.99579809252344    8.44736597132620    2.30247528522601
C          43.36149382074382    8.57446997059705    2.06337885371205
C          44.13962538962992    8.31351350227115    3.17333762339154
S          43.14616696370279    7.89273163960496    4.53771760722495
C          45.56785640122867    8.37477036647420    3.25087272245215
C          46.30242874570985    8.08255020382456    4.39171808442249
C          47.70081843540998    8.15451607957714    4.46349467599899
C          48.51377871032347    8.52836751370734    3.40359713632042
C          47.79434574427516    8.83313356300544    2.22035265405982
C          46.37056427702453    8.75779573099102    2.14585433647942
F          45.66328414114441    7.70497938371436    5.51619243018722
F          48.25490129576043    7.83758442797002    5.65040562622764
N          48.23283780034104    9.22413810417232    1.01554467819085
N          47.15083363110035    9.36178877286603    0.30240113334769
N          46.02110820056458    9.10695817342576    0.90012452370849
C          47.19647808558248    9.82636201917530   -1.05455779198818
C          47.13370732039646   11.35039965963315   -1.09574103785677
C          49.94490254797823    8.61345760828108    3.47091668244819
C          50.79878426188991    8.98937092320155    2.46040245252531
C          52.14804825307145    8.97387545492112    2.84545396383963
C          52.31853044670802    8.58837132934528    4.14036569054209
S          50.83563308417594    8.23905499040078    4.92011731670737
C          36.72761201585210    9.48634879690148    2.22840887828838
C          36.28050265668945    9.89497723947191    0.98475150652726
C          35.34792276417926    9.12707891669390    0.29474185353876
C          34.87404383335441    7.95062890003091    0.88001763263819
C          35.31865291552094    7.55584122622566    2.12117443186701
C          37.66189029854728    7.65474517143126    9.24451538578737
C          38.10725480540182    7.38258316124670   10.52578321459423
C          39.02337619802204    6.35778322315557   10.74039499239321
C          39.48509992957285    5.62278036073529    9.64593222727684
C          39.04149025814468    5.90473010768581    8.37429096390811
O          39.52398218562531    5.99589811282299   11.94975616432652
C          39.11080776107787    6.69803309458961   13.10447527422977
O          34.84252696726622    9.42477207360168   -0.93042584010436
C          35.24598058400936   10.61905669751458   -1.56925529063876
C          39.83574913914943    6.09244109316226   14.29613910427271
C          34.50280821874288   10.70794118070969   -2.89288666176864
H          -5.01643617339082    8.28395844440777    5.07215012559545
H          -5.27030392530648   10.77244162392963    5.80776672484280
H           2.07008030394281    8.81511017375386    4.30020373037295
H           1.99061573225949    4.34304876539911    2.53439222875233
H           4.49678893891846    3.73417801379309    2.13488491252812
H           8.53962644972366    1.77103396718865   -0.41135982542272
H           6.75272082314907    1.82456953329635   -0.31246733378084
H           8.60379370314097    0.48348817400652    1.72761042269973
H           7.64938188165609   -0.37178376098446    0.50914733157957
H           6.83619876692787    0.51544797138605    1.80477688912648
H          11.15188933073575    3.88084656416006    1.30255566310896
H          13.72156428125966    4.11368134072243    1.69452184117737
H          -0.40924347930305   11.33579100051686    6.99719598069915
H           0.96814302294758   13.32417383967813    7.23078921060822
H           2.50342005988886   12.72902338928815    3.28692869329220
H           1.08985366911536   10.71976946577077    3.04695373882755
H          -3.98969214895358    6.32847652029957    6.27642401124883
H          -5.42105962885422    4.37570216594240    6.03243991964775
H          -4.03018997244914    3.85803801742554    2.02467332349049
H          -2.58985309872135    5.84667788947728    2.27277153607885
H          -7.16272401073276    3.14678971406464    5.04784115022612
H          -5.83803144205269    2.11265908050199    5.65102927526615
H           2.98425314841965   14.52057549287453    7.29994362762922
H           1.64548658006164   15.48065566452464    6.61123165901877
H          -7.71404332371597    1.41985523624523    3.33400327043482
H          -7.80214901083843    0.74135371719869    4.96812136123001
H          -6.40616018617446    0.39852719806275    3.93278607391780
H           4.61008432173249   15.84407882310749    5.94487128487113
H           3.66090209824650   16.89749098661084    7.00748532291322
H           3.28555598501186   16.80038260552207    5.27833424267390
H          14.11584317400344    6.95411183848617    5.54820361427770
H          21.19142403499437    6.19347260952856    4.94312769291041
H          21.50933422826784    8.21354937977179    9.28889585692879
H          24.05899389990394    8.24458878746511    9.83902035865325
H          26.49604354844824    8.57749301846193   12.68096229326354
H          28.27521451241292    8.37954459380754   12.70568212744716
H          26.22392622341800    6.10440044015786   12.79161923480895
H          27.16463652042260    6.68118969405112   14.17303606976467
H          27.98085385347947    5.90110881267717   12.81296421994489
H          30.62799185707251    7.07521882476533   10.01421221548942
H          33.17133408437521    7.06149591971318    9.48663842657350
H          20.43680454120213    7.06571339967076    2.75902408560807
H          21.75659394366067    6.03957257230666    0.99399988150882
H          19.47023366581281    2.44820264457252    1.37150024254798
H          18.14857012453917    3.48495476373251    3.17689118189691
H          15.03397770718585    9.21283660180079    5.85401080879448
H          13.69708171974946   10.36493742591332    7.52572185095169
H          15.67606301476829    8.17628087795860   10.61754640770740
H          17.01310419581725    6.99210458435766    8.91742822545016
H          12.13380334139382   10.40725195724556    9.27041454917223
H          13.33140604203412   11.72560999088860    9.39725091972887
H          23.21371577306116    4.41572168833813    0.13834500954082
H          22.07443254274876    5.03112118167316   -1.09156582416931
H          11.83940016420497   10.44619253423358   11.74393220809899
H          11.49245523359034   12.03582617723511   11.04444868251955
H          13.02949920269147   11.74203834490350   11.87492520615132
H          23.35678416976761    2.25214122203398   -1.08997190951029
H          23.82511997344883    3.60307319824636   -2.13556137655558
H          22.22721240496270    2.85619445590791   -2.30364809281210
H          35.29118268241380    6.80193293395742    8.38977406902946
H          39.08094406627536    8.26916230212447    2.53478457542596
H          41.24193667060422    8.61378132704367    1.55475878438733
H          43.79204417512875    8.84992472800304    1.11901323973503
H          46.34289729143737    9.39326147937957   -1.57901604446626
H          48.12940808582999    9.46931794159232   -1.49445668228002
H          46.21168127216540   11.70013462997020   -0.63781574950377
H          47.16696603409022   11.69408975431389   -2.12552172343549
H          47.97688312474320   11.77445762007131   -0.55608607524841
H          50.44587935279824    9.26286695326669    1.48410526002909
H          52.95911391033496    9.23863356722114    2.19081559324097
H          53.23520871416811    8.49120598076603    4.68776732852189
H          37.43576090542033   10.10262907932585    2.76350827017835
H          36.66254732616818   10.81433457069948    0.56868293533964
H          34.15165112558035    7.36380753895032    0.33536804418814
H          34.94889670399530    6.63868996519611    2.55417774862084
H          36.96722943543826    8.46764605276979    9.08854934260799
H          37.73709951741328    7.97921740113324   11.34517010362885
H          40.19610983807133    4.83197488438015    9.82466740727367
H          39.39935826615790    5.31819139210769    7.54163375614961
H          38.02299832110788    6.60444207112499   13.23424517566605
H          39.36271583817252    7.76365520908278   13.00948826885755
H          36.33137753352530   10.60677442502516   -1.74423461173838
H          35.00194635102247   11.48552761379741   -0.93858133911532
H          39.58392126173841    5.03940876186080   14.38758130337407
H          39.54854980945245    6.60986778492774   15.20714672268334
H          40.90983855182814    6.18003216096327   14.15805173558981
H          34.74295512910840    9.84723601686972   -3.51101471422765
H          34.78686477761375   11.61597039170233   -3.41718541301706
H          33.43107327168943   10.71744668409533   -2.71512298586578
