272
 SCF done       -525.687358797762          0.000860336683
C          -1.05557169207413   -2.22101530372927    2.03996129047786
C           0.10549437825211   -2.77463371897165    1.53125365371169
C           0.03822587921036   -4.15461216869706    1.43792503523302
C          -1.17393338337435   -4.69192069237952    1.85580706912041
S          -2.25007255210529   -3.43373882311390    2.38477896791117
C          -1.46685304261342   -6.07695333099281    1.85708571542272
S          -0.17009382672144   -7.14978059459846    1.38584791706477
C          -1.15306406301929   -8.57808427830564    1.60024704264386
C          -2.42638946426816   -8.22166945877977    2.03011949352973
C          -2.60714768551814   -6.80949569344135    2.16933828794521
C          -3.47627637342681   -9.17799343152936    2.32950493065049
C          -4.71841397164239   -8.59006128650394    2.81965778714577
C          -4.91262346213460   -7.17478098260339    2.92471900116525
C          -3.87038525215124   -6.21978048038884    2.57770944424375
C          -5.77507710495973   -9.31330177974510    3.31545378865445
S          -7.03380977593810   -8.25953340170520    3.86708970192957
C          -6.12240447350927   -6.83607675713129    3.48860584688311
C          -0.54636099978721   -9.82071484017826    1.29388429565075
C           0.75039745777993   -9.94964705828912    0.81204897183552
C           1.11693764954874  -11.25357533180097    0.51620366162470
S          -1.31482376122090  -11.37648207240233    1.41263690354798
O          -3.32903037354966  -10.39278520036432    2.21829256411090
O          -4.04809142427480   -5.00319822998547    2.65254466593776
C          -5.89384004256194  -10.78433373489920    3.50316757104812
C          -6.27322190302428  -11.52246791495900    2.21945727494488
C          -6.64180532643358   -5.48900346538750    3.82796294220675
C          -7.71918519808908   -5.51645201367534    4.90391217340009
C          -1.33617269729998   -0.84735336192412    2.24837363154881
C          -2.48959571909103   -0.29778095442626    2.77129178894331
C          -2.42696874862405    1.09221613344396    2.82755795695002
C          -1.23720113024797    1.61921523896688    2.34167607958243
S          -0.16629431971180    0.38416047205275    1.80785649886840
S          -3.61607085678441    2.30312604374550    3.27221718236922
C          -2.50933781025640    4.96224735371195    2.54232141926049
C          -1.21457346184677    3.03137799593449    2.26324100933157
C          -1.65330889893541    5.99195731815078    2.63173926201461
C          -1.58071549695240    5.16830981467880    1.35354071294942
C          -0.76388890943283    3.92287099968868    1.34165891364845
C          -2.28930661394723    3.62316376531080    3.16955646392854
C          -1.62129673568035    5.66735519895909   -0.00188090572249
C          -0.72835045823823    5.05529804336543   -0.85102999680262
S           0.13527394677548    3.69461947497539   -0.13182946599295
S          -2.38727428339504    7.00787988666880   -0.75694881775103
C          -1.51888722273808    6.69980229272645   -2.22129333834438
C          -0.67537034633903    5.63946460800678   -2.13258829998085
C          -1.09203922989182    7.09180705145358    3.25134119733101
C          -1.83132807147761    3.84478435018767    4.56933141021406
C          -0.05782020293917    7.89310010628898    2.78899889570960
C           0.27914601448753    8.92730969139574    3.68566311961226
C          -0.48553530973154    8.94645285662481    4.82331788404781
S          -1.63347446350759    7.65877280881520    4.81717923126038
C          -2.47221377010883    4.54764963595521    5.54649771476040
C          -0.54086103171448    3.94532903486196    6.70314552305617
S          -0.31513092611379    3.23845261988780    5.13653528498953
C           0.45992867693356    3.74905380050196    7.78747679786806
C           0.27481588732429    2.38834711272900    8.46354021076309
C          -0.44844898067664    9.94411980279561    5.92631330807447
C          -1.28829955980062   11.17571108735885    5.57386952737261
C           0.10851334622797  -12.15691707286356    0.78753630381022
C          -1.73488074978057    4.59948868788552    6.76013908454199
Cl         -2.30245987661073    5.44424755768631    8.13838387134365
Cl          1.52656778054516   10.06139211963768    3.36547409086091
Cl          0.74458207014802    7.63264810931171    1.30348223323441
Cl         -3.99519053853690    5.29432850591581    5.32628498978466
C          -5.41372551513505  -12.64720019016366   -2.31268262251259
C          -6.69506161904464  -12.97859364089653   -1.91962478852074
C          -7.33619995983559  -11.93334393864134   -1.27312368690772
C          -6.55826487661273  -10.79102298663911   -1.13852836531951
S          -4.98345604416714  -11.03085851903285   -1.83718290465593
C          -7.01008776685641   -9.59521983807599   -0.52839931387343
S          -8.63537510293738   -9.60321880652150    0.11577769874088
C          -8.54682401559164   -7.93078767636877    0.60714770672699
C          -7.31203978511182   -7.39596334950260    0.25461609584207
C          -6.43277563388500   -8.34523256614432   -0.35383311064518
C          -6.97019751342962   -5.99564929832098    0.39852930169821
C          -5.66876296603108   -5.61738762009901   -0.13044623924875
C          -4.73617860148138   -6.59762133779495   -0.59898710838019
C          -5.06518426057458   -8.01042001707878   -0.71719207786574
C          -5.18281022705566   -4.33513654755734   -0.20697438984744
S          -3.56361330253085   -4.33027418020605   -0.82167112983544
C          -3.54132448766023   -6.04842287215832   -1.00042916154868
C          -9.68797444275094   -7.39041857365272    1.24888749649967
C         -10.85571184756484   -8.10485155681385    1.48471543844236
C         -11.84628422764710   -7.37477094250916    2.12273711205191
S          -9.83308187984452   -5.76639226512173    1.85605978660831
O          -7.73108360413252   -5.18192075212992    0.92637186430018
O          -4.25081059734783   -8.84244812339289   -1.11506486029275
C          -5.87422818692919   -3.05188258623998    0.08279420900066
C          -5.10553071700950   -2.18781927127422    1.07909260641188
C          -2.36583830417695   -6.76101458741158   -1.56372625776240
C          -1.21017195604798   -5.83775262958786   -1.91799035792405
C          -4.44824828385449  -13.48379132844814   -2.93566905551420
C          -3.25754418988034  -13.08615243810743   -3.49499334691127
C          -2.43469437395658  -14.17153963880391   -3.80142374555429
C          -3.00356906769765  -15.42131408125693   -3.49091503447674
S          -4.60421907688986  -15.23605195018501   -2.87539874943988
S          -0.74803766640696  -14.25961180099178   -4.24028675089773
C          -0.81199516960752  -15.96005232250930   -3.95578726831151
C          -2.05231868293085  -16.43957078708872   -3.60065882063393
C          -0.02600429939973  -17.02811517671490   -3.24788972664782
C          -0.05647652263741  -16.67850062395866   -1.76508714469939
C          -1.21721775019989  -17.37792204893070   -1.51610578261344
C          -1.50488412086213  -17.70868521452681   -2.95492763871553
C           0.14050104275475  -15.63444681699268   -0.85689378738892
C          -0.89193904648416  -15.60093871396799    0.09934280518384
S          -2.07985372239890  -16.86352194665133   -0.11143570070477
S           1.12533989963953  -14.22085673098551   -0.75450561198330
C           0.05731094595741  -13.54166656698684    0.47035489267110
C          -0.92216426291961  -14.42714989513921    0.85421848646371
C           1.02517420847144  -17.81750209789594   -3.86320414589597
C          -1.80647858089930  -19.04034092762580   -3.44810071173160
C           1.94048594514978  -18.63581382560545   -3.26031365794491
C           2.67037776619063  -19.42311075938846   -4.18973983007030
C           2.30752861701908  -19.21713505834993   -5.48804529484406
S           1.03902354020908  -18.04420676844159   -5.58261843320587
C          -2.31517771126969  -19.40388228761217   -4.66472482036478
C          -1.73736821584434  -21.50699630291041   -3.84107159795984
S          -1.24781194571179  -20.43197827155165   -2.57693378387109
C          -1.48623629130653  -22.97111143080534   -3.74605932516297
C          -0.10436756461120  -23.31968972761942   -4.30436853545140
C           2.80806378657066  -19.90644194945942   -6.70874082341361
C           1.96764668044225  -21.14999054934806   -7.00974161693589
C         -11.44710640265519   -6.08365815005656    2.40924660657024
C          -2.27916605709270  -20.80713495420180   -4.87856455105804
Cl         -2.86019957351151  -21.53451898357872   -6.31955176487835
Cl          3.88475813832744  -20.53287650238179   -3.70309786496103
Cl          2.19251940842539  -18.70878736077762   -1.56813411369071
Cl         -2.93763502500591  -18.29773624156657   -5.81439480503562
C         -20.56991911771052    3.02838671005099    5.30703111496804
C         -20.11071486210494    4.29800467023137    5.60101796967500
C         -21.12736195861818    5.23946799046517    5.61074013513345
C         -22.38155245956866    4.72042226483467    5.31741091605281
S         -22.28579017460090    3.00466984474665    5.03645512561284
C         -23.55910826235374    5.50643366101322    5.24406139729650
S         -23.39590982095547    7.21082217309041    5.58938842486067
C         -25.08803261252972    7.52755157273920    5.29440121740265
C         -25.73975086574782    6.35334644591568    4.94214279118391
C         -24.87631123417075    5.21050369372358    4.91741024444667
C         -27.15703766211394    6.27191200163892    4.62415054620314
C         -27.61721471968490    4.94607697090173    4.22138398396321
C         -26.75216880287036    3.80774706812292    4.20494461491395
C         -25.34740300684110    3.87981459266952    4.57834524196233
C         -28.89111913513404    4.65095552259186    3.80441694910302
S         -29.03537526433829    2.97315280813794    3.40278933259819
C         -27.38007095963652    2.65809560512278    3.78835172847815
C         -25.51784066236214    8.87443864026249    5.44207633796877
C         -24.67346424010920    9.91894473990291    5.77727365045746
C         -25.31724656297667   11.15434386655298    5.86496990970798
S         -27.14799524227723    9.45511333396616    5.23551760510235
O         -27.91529749500300    7.23541557283301    4.68336522644001
O         -24.62737626833723    2.88210350762662    4.59359059347057
C         -30.07613842535773    5.54199440715483    3.71011080879659
C         -30.75747550041533    5.68598400044046    5.07412430527692
C         -26.79027791860336    1.30153995024599    3.65638265125229
C         -27.75620050484287    0.27534608512475    3.08295466463620
C         -19.79252033004751    1.84524502566647    5.19122518827837
C         -20.23943920007449    0.56187100209802    4.97163784737381
C         -19.17991206066544   -0.34481971514521    4.87864052277801
C         -17.92354715658259    0.22858603031087    5.03104380788061
S         -18.04375999985563    1.92877972406945    5.29159524491873
S         -19.09076586898483   -2.05213001929744    4.55651900541814
C         -17.34022463107259   -1.97275934370428    4.56124384334079
C         -16.84855515065963   -0.67796071128448    4.86588949123148
C         -16.49890616053951   -3.03980798926246    4.28470964211509
C         -15.12043616073170   -2.77922832089077    4.24634893663032
C         -14.62898445400882   -1.48976467938308    4.57217742345584
C         -15.46699398227106   -0.44051976339279    4.91736358382966
C         -14.05339272673326   -3.62499256939846    3.85593241642616
C         -12.80508833938733   -3.01552615470951    3.89313091119098
S         -12.88463138692211   -1.37489570601331    4.46256652148881
S         -13.94257381401149   -5.22888601402528    3.23032480800648
C         -12.21274307238847   -5.04837743485072    3.00893294636928
C         -11.76184612552085   -3.81431543531238    3.41883507796849
C         -17.00228518643397   -4.38278097702472    4.04036648243621
C         -14.94955791721053    0.85887202166995    5.31813427618545
C         -16.69753836004877   -5.51788151247735    4.73719638064228
C         -17.35111985208610   -6.67407794007739    4.23486064915500
C         -18.14489862177471   -6.42530343931566    3.15528951887741
S         -18.11048353172735   -4.74207783201425    2.75437289529099
C         -15.15967607108402    1.50390936326403    6.50407500209630
C         -13.80356231675117    3.07900775369176    5.45418032776908
S         -13.92999727480734    1.80984451482205    4.28478131553932
C         -12.95862011371623    4.27725117844495    5.19666471956149
C         -11.48388570315763    3.97208694215050    5.47007379044289
C         -19.00852723667492   -7.37694968050134    2.40380806510391
C         -20.45451790064004   -7.31005085874345    2.90068016847589
C         -26.65206722051143   11.05152146946500    5.59829074842166
C         -14.50565360071605    2.76221996473305    6.57860226425839
Cl        -14.61419944996985    3.77334396814711    7.95974792403871
Cl        -17.13354826272795   -8.22717491887184    4.92914108405420
Cl        -15.67803622940604   -5.54424041269453    6.11437541253196
Cl        -16.06896414139558    0.84446159651600    7.79828195093828
H           0.95942534753478   -2.18769945017060    1.24164617629911
H           0.84361753963587   -4.76930522561888    1.07394925826720
H           1.39681653646685   -9.10069852671075    0.66966174896826
H           2.07376241783698  -11.53866212938864    0.11524639760067
H          -6.63889574776234  -10.98634896066468    4.27566456774124
H          -4.92249534254113  -11.16045729056053    3.83444534947607
H          -7.25204836316597  -11.20489306544035    1.86925998394114
H          -6.30291501192280  -12.59231850151028    2.40694938796768
H          -5.53094704682352  -11.32931968005193    1.45011857659184
H          -7.05189200026144   -5.02575875064346    2.92410084292899
H          -5.79554595821321   -4.86826305688667    4.13618244782547
H          -8.58698499175299   -6.07771589827124    4.56240374767292
H          -8.03743029849009   -4.50359485458284    5.13533002080709
H          -7.34450647452393   -5.97882265281169    5.81521986719537
H          -3.32850832705741   -0.88772023614172    3.08921700184828
H          -1.69537171541143    7.33445002510076   -3.06633021205129
H          -0.04684325919070    5.29176645955478   -2.93077157953651
H           0.33541631946231    4.54513647130062    8.52383715456058
H           1.46616791248856    3.81189773339530    7.36898393693937
H          -0.71963202589784    2.31507172630776    8.89646615047708
H           1.00946413315427    2.26172983695611    9.25408627696880
H           0.39869859191753    1.58715914597447    7.73862895504190
H           0.58703821481231   10.24732100647558    6.09499101516819
H          -0.83558967881843    9.48750865190238    6.83823908998821
H          -0.90485318205411   11.65058803786351    4.67437018246861
H          -1.25305481460132   11.89320816321360    6.38889034296906
H          -2.32401716834479   10.89059122182402    5.40331912407334
H          -7.13810172393860  -13.94116918110068   -2.10538061577619
H          -8.34625479142553  -11.98733349819487   -0.90535643274528
H         -10.96844627774177   -9.13283776919022    1.18674531799577
H         -12.81823736979980   -7.76133103987903    2.37477836431253
H          -6.86524852215544   -3.27797289732113    0.47555784854268
H          -5.99183165127821   -2.50029811429304   -0.85622805340645
H          -4.94208736844544   -2.74723983665438    1.99595367090197
H          -5.67189100941316   -1.28794930613194    1.30452985475697
H          -4.13969826205633   -1.89876220717111    0.66914693474093
H          -2.69699225774806   -7.31414789814307   -2.44911906932757
H          -2.04369972088096   -7.52512801616723   -0.85000104251573
H          -1.51389225737348   -5.12063396455421   -2.67760481827429
H          -0.37439813864839   -6.41654872156395   -2.30193749938071
H          -0.87507533922119   -5.28516189594566   -1.04270426341270
H          -2.98192099724519  -12.05472770384835   -3.61413723584220
H          -1.67033083548136  -14.19011163284698    1.58786638507558
H          -2.25328427058473  -23.50003461464214   -4.31470828985665
H          -1.54640900533912  -23.28050359625627   -2.70168536025914
H          -0.04752625369495  -23.05103297512110   -5.35602162080030
H           0.08032118717913  -24.38587658586155   -4.20606211813861
H           0.66804120691593  -22.77932912840411   -3.76196388829832
H           3.84791762383538  -20.19799633508678   -6.55032032622636
H           2.76010511510175  -19.22049787794576   -7.55572749391756
H           2.04166215061181  -21.85878470528701   -6.18908728745378
H           2.32188844312841  -21.62965739661550   -7.91809444857244
H           0.92357541390177  -20.87596430272612   -7.14302444705652
H         -19.07684632219460    4.51958448104726    5.80106986349042
H         -20.97296932026639    6.28413784079225    5.81849819533603
H         -23.62044268534957    9.77898230417006    5.94992897075582
H         -24.81677037650784   12.07335606137632    6.11318000970348
H         -30.78358128597282    5.13238110965133    2.98624432251274
H         -29.74972274825691    6.52977979353735    3.37902541307104
H         -31.05470015344054    4.71278621887550    5.45955914079791
H         -31.64110804108246    6.31109729506821    4.98094848540919
H         -30.07512301172768    6.15424788940413    5.77820143421958
H         -26.43768351969053    0.98261679374704    4.64266775348470
H         -25.89433584872277    1.37636958011975    3.03185618374296
H         -28.63062150443840    0.17225996510981    3.72244684094169
H         -27.26995287527309   -0.69339805743218    3.00501248742708
H         -28.08987392772892    0.57502085471978    2.09154565211724
H         -21.27945166262765    0.30961368529489    4.87954407670506
H         -10.73191488745752   -3.51512681644926    3.36136234104771
H         -13.29330650959912    5.08789339671447    5.84608217461069
H         -13.07749278767044    4.58836574032120    4.15724172817934
H         -11.34534079073978    3.67935852851468    6.50799850679739
H         -10.87682942122504    4.85129057411569    5.27177286507967
H         -11.14320657875334    3.16050926566561    4.83162975791748
H         -18.61850399816849   -8.38688566205557    2.54198822695836
H         -18.97884403812920   -7.13177520791818    1.34064122618620
H         -20.50281787842597   -7.56874479051092    3.95537856893760
H         -21.07391301256355   -8.00656125324339    2.34211014802318
H         -20.85087638083418   -6.30593404327244    2.77060908973551
H         -27.37616825250216   11.84275740590466    5.59523029270441
