272
 SCF done       -477.198190576390          0.001365032967
C           4.41049438873763    0.87789940641925    1.72464705303926
C           4.11270864137346    0.51243628868101    0.42506438016958
C           3.99265073636204   -0.85950225176877    0.27688887675637
C           4.19350210752621   -1.57376652393569    1.45221681008038
S           4.57607383693761   -0.50105411885723    2.76742886788329
C           4.01906156980022   -2.97646103812981    1.55903471679684
S           3.52625392605207   -3.82958611671762    0.11557378944263
C           3.35810699662798   -5.34819355768190    0.96281450590800
C           3.71069349827271   -5.19307992882519    2.29911217705126
C           4.09113226734103   -3.85535551810161    2.63269171225478
C           3.69626812525041   -6.27041998031578    3.27382820207175
C           4.10792889078630   -5.88214594423152    4.61475192655666
C           4.49661245603994   -4.54805545915032    4.94567385378312
C           4.51281054943905   -3.47039880130620    3.96963985935922
C           4.15579285124448   -6.73589861306404    5.69057008569884
S           4.67898839702670   -5.90190206743595    7.11304582601421
C           4.83723504420803   -4.40034867464665    6.26918567893618
C           2.83849434691071   -6.44067810937875    0.22729746688338
C           2.54013372505906   -6.39198318078178   -1.12868073204213
C           1.88902639191876   -7.51892130168403   -1.60378542034754
S           2.33768271828685   -7.96234954035167    0.91092221516887
O           3.36413592539569   -7.42380677949889    3.00429631161115
O           4.86461474293159   -2.32960530378436    4.26505039065679
C           3.82094317998907   -8.18273535140009    5.71083306935261
C           3.91350865600415   -8.80691199687254    7.09530966840842
C           5.28471737883293   -3.16087116379454    6.95279731620606
C           5.52623081255534   -3.34352227895042    8.44368270091052
C           4.55106862554747    2.19518397749643    2.23433683311620
C           4.88497678184144    2.57750101498714    3.50116006159237
C           4.92577261821563    3.97956905734700    3.69127062696291
C           4.57328861467614    4.67466087788736    2.51526056544869
S           4.23786409636362    3.58211458747808    1.20556818506048
S           5.41001950780742    4.73683745206680    5.11604420135516
C           5.34777304074579    8.00478213267087    1.21374160838737
C           4.55692064361607    6.08253357186915    2.30774526707110
C           4.48639635775872    8.89704832657574    1.77076415991124
C           3.73080552813875    8.35740720008007    2.84758587535410
C           3.74961710423784    6.95593035247063    3.03355709361865
C           5.51139082164008    6.67829157854346    1.40206505835489
C           2.82078254399199    8.96195479554215    3.75264874673708
C           2.14589623648279    8.05210137550736    4.55498971099272
S           2.58589425894070    6.41009081017614    4.22004352387625
S           2.40197091576323   10.58074361114443    4.19014535087845
C           1.32933025819334    9.99950969307339    5.41326474489223
C           1.28509196431968    8.64525030454659    5.49823011923784
C           4.37462155403602   10.23651929127069    1.24078081778413
C           6.60658274697032    5.96019999696829    0.79552347914939
C           5.38659137383216   10.94673145223335    0.65353623436305
C           4.97359216664572   12.20177404035644    0.16921822513767
C           3.64635281971360   12.44178081580043    0.35570744128179
S           2.87692357650495   11.10915628691325    1.15229455091632
C           7.26772195294889    6.33590863509223   -0.34418528446710
C           8.31572144774502    5.46388587375538   -0.69047220184073
C           8.47653629757784    4.43759660601807    0.19106359430318
S           7.32272046292422    4.53139990857079    1.47640686756139
C           9.43469936014387    3.29847952072788    0.13626797314348
C           8.69988660969458    1.96430820916558   -0.00827047340263
C           2.86463477219641   13.66536294726035    0.02532694630726
C           2.52061868300420   14.45372488935701    1.29113287488763
C          -9.30565409542828  -14.85308271621976   -1.93882905301203
C         -10.39972848920977  -14.69601422831953   -2.77184975194389
C         -11.60012203990672  -14.73456215719160   -2.07945331289059
C         -11.45831188210799  -14.93223961148280   -0.71179627132313
S          -9.78306078215093  -15.15630311151200   -0.29798921322326
C         -12.49929286221365  -14.75915853887830    0.23258460620441
S         -14.02395378876068  -14.14120082606713   -0.35757563869419
C         -14.65011608904851  -13.90299046850299    1.25847227621654
C         -13.73693712526245  -14.36245161301972    2.19947388833373
C         -12.52446276469117  -14.85036651214002    1.61952884036793
C         -13.96747538895979  -14.35103772423997    3.63354680975071
C         -12.88126808795617  -14.90958845102022    4.42763232518334
C         -11.66905342717243  -15.39953400428610    3.84846752872752
C         -11.43084167747211  -15.38363723603707    2.41012771965466
C         -12.90385012999194  -15.01550845059634    5.79786446806872
S         -11.43614179259112  -15.72134182264930    6.38009947472178
C         -10.78649350383499  -15.87963019771445    4.78392472049064
C         -15.87681132628275  -13.20525826044637    1.37702026738357
C         -16.64489037374208  -12.79279950072440    0.29609262281651
C         -17.68341580358034  -11.94077555876496    0.63667467804715
S         -16.51198801359309  -12.56021216188677    2.86439715149961
O         -14.99396901009480  -13.91308641136987    4.15079734776463
O         -10.38492399047153  -15.79762433714813    1.91326404142606
C         -13.99547521538593  -14.60928150927855    6.71895035163149
C         -13.68074538858352  -14.87383881689942    8.18388058090498
C          -9.42479160382040  -16.43850623864000    4.57901610888668
C          -8.39597718081228  -15.32303377966223    4.37267845530444
C          -7.93322347193044  -14.65552471086343   -2.25210432161848
C          -7.39022987916927  -14.16859049345528   -3.42121030159182
C          -6.03177311265949  -13.87374197159121   -3.27382834503078
C          -5.51625222267948  -14.15758405150904   -2.01533104464445
S          -6.73303592369622  -14.81668223626711   -0.98372751285507
S          -4.88058322244496  -13.06020246956536   -4.29138430783444
C          -3.74460030955595  -12.98178937318845   -2.95482872337451
C          -4.19721045628506  -13.68071530057153   -1.80804268268032
C          -2.55852071427255  -12.26079071793282   -2.97155161567512
C          -1.85139098745241  -12.18771599127820   -1.75875383369668
C          -2.26654730053040  -12.94298172322335   -0.63368562274223
C          -3.40995532553775  -13.73265437560320   -0.64300791656804
C          -0.76440435294860  -11.34662838334292   -1.41216517422794
C          -0.34797073272674  -11.47330101308765   -0.09290174232344
S          -1.23426493488725  -12.69664092644044    0.76532106026771
S           0.04220565104752  -10.03633750665018   -2.19428809335257
C           0.89603503331033   -9.64550509923052   -0.70925918832286
C           0.59685496170538  -10.52472588998594    0.30644497822813
C          -2.06188053257726  -11.58107189206106   -4.15245815006019
C           1.66707064102746   -8.45777837172122   -0.61328729887461
C          -3.80167977068120  -14.56709781431761    0.47457471287794
C          -0.79317820259251  -11.62333279147678   -4.65599350759935
C          -0.63449278878951  -10.85163023986997   -5.82389220995422
C          -1.77169649949361  -10.20982740035187   -6.20539307151972
S          -3.08118112751541  -10.56654892001912   -5.12803272205371
C          -4.25622599983501  -15.85509376092157    0.42103298462300
C          -4.51801341509094  -16.40554015983829    1.69028031035863
C          -4.27435699686759  -15.54222215128266    2.71346308857545
S          -3.70321651046739  -14.01775367903976    2.12119748612893
C          -4.37939869665224  -15.78419632956849    4.17976321209964
C          -2.99254058798542  -15.89114028034406    4.81812907818731
C          -1.99292711425435   -9.33675678879449   -7.39198388871194
C          -2.83417636584087  -10.04991364565922   -8.45252428736474
C         -23.56066394151419   -0.34927057498788    5.35433460369333
C         -23.29862022189775    0.14000519865241    6.62028664421720
C         -23.68873381859073    1.46131408969142    6.76860785244882
C         -24.25531486949102    2.01697385430647    5.62826569892475
S         -24.31153241467209    0.84450206793676    4.34078257757345
C         -24.69387524214331    3.36143501474707    5.54110818865090
S         -24.50303641373038    4.35056063286494    6.96848200926322
C         -25.15951781889133    5.76901698270894    6.18786605629778
C         -25.51018591217159    5.47351023569991    4.87762119112170
C         -25.25000655913628    4.11323903426598    4.51221584016441
C         -26.08626042260075    6.43537851819913    3.95164607435316
C         -26.33915069690905    5.91839987522417    2.60936180346573
C         -26.07969441903588    4.55804595283024    2.24735299100548
C         -25.53631596866007    3.58714001553556    3.19107305278232
C         -26.83478683530129    6.66335888974580    1.56801504172863
S         -27.00496051241993    5.69245689695789    0.14548271237319
C         -26.40434248693444    4.27974926087230    0.94239398263277
C         -25.22267375802703    6.95419850875557    6.97015574039843
C         -24.77631858969955    7.03761463444080    8.27782843783495
C         -24.93870507237619    8.30217748530313    8.84614901925794
S         -25.85818701255797    8.49045636651757    6.44736199853012
O         -26.34736373010232    7.59354205615415    4.26461984865811
O         -25.33313256597397    2.41562458510160    2.87690098709903
C         -27.25289283603420    8.08892646608007    1.54919806246655
C         -28.69514561102490    8.23641011677457    2.04260612418726
C         -26.25310485700526    3.00732767511978    0.18992448308680
C         -24.80847355097027    2.82535913970972   -0.28472342302864
C         -25.51005393834228    9.18207933874698    7.97288667356561
C         -23.25914427900971   -1.64171360880218    4.84962156092355
C         -23.49083926727509   -2.11302018393034    3.57800807463935
C         -23.01877622720686   -3.41828486405034    3.41643688415416
C         -22.43452842525901   -3.96220352322837    4.55355472120373
S         -22.46472192650334   -2.83694233036983    5.86201158877785
S         -22.95273627691587   -4.49646285001638    2.05627967197891
C         -22.06651231704912   -5.66754526422857    3.01613001017596
C         -21.88778862324220   -5.25613580009315    4.36137974460743
C         -21.56802921294263   -6.86575132607386    2.52349374151838
C         -20.80825194444922   -7.64696774276509    3.41027295815418
C         -20.64692161033946   -7.24579822267102    4.76005042748952
C         -21.19539996427864   -6.07610235686000    5.26789145686297
C         -20.05512751741186   -8.82046968747314    3.15505717668760
C         -19.37028703745284   -9.30778042797500    4.26129864171555
S         -19.66072873588815   -8.36195497647853    5.68930446450014
S         -19.66310170092785   -9.72435943795862    1.73757063129200
C         -18.55327934043255  -10.73017279325986    2.65549574789426
C         -18.52881398459498  -10.38976669291761    3.98866788096668
C         -21.79827115324501   -7.30855974623525    1.16020665421317
C         -17.72599304825943  -11.67403327751094    1.99243687397911
C         -21.05009120129276   -5.69902061009374    6.66313057937309
C         -22.25970856514510   -8.52601223972803    0.75060493021714
C         -22.36089148114226   -8.63738341260023   -0.65060373949195
C         -21.97533212560172   -7.51251007667867   -1.31119772259580
S         -21.48327289525260   -6.27516109888863   -0.20188361319997
C         -22.03013600647019   -5.34707229937116    7.54425403805826
C         -21.53799503863297   -5.05743077724738    8.83343526893429
C         -20.18686455469309   -5.17531283676988    8.93544556680837
S         -19.48852037318716   -5.66680920249431    7.42788571852956
C         -19.32185391921131   -4.98006047675239   10.13281500610787
C         -18.78406665521652   -6.31541218883396   10.65097556929339
C         -21.89560781220234   -7.28005697244609   -2.78063465490352
C         -20.44259231476936   -7.27019507459245   -3.25954136290652
H           3.98247159809571    1.22415751581680   -0.37139084808519
H           3.75008303450669   -1.34309138631037   -0.65350837642634
H           2.78145972541607   -5.53787926053537   -1.73777514473640
H           1.56586485082549   -7.64950566530720   -2.62181591802267
H           4.48963086850404   -8.70006463931894    5.01490901994276
H           2.81368645971716   -8.30682292957045    5.30061286529884
H           4.92256182697788   -8.71360910551362    7.49193710039501
H           3.65825022036797   -9.86229359152834    7.04732566332061
H           3.22752857515983   -8.31692168295112    7.78339618273574
H           4.53429921629742   -2.38293325384396    6.77851758873932
H           6.19623070960101   -2.80656070795039    6.46018298069624
H           4.61709518235530   -3.67438529074985    8.94203231413682
H           5.84032986062769   -2.40309032992210    8.88841005338749
H           6.30336715445444   -4.08506643815020    8.61916741613678
H           5.12153375634378    1.88055166770211    4.28498126813686
H           0.79009074227926   10.71389394770407    6.00302517836289
H           0.68172964914033    8.09545278268619    6.19602276504177
H           6.39637723484738   10.57999918950040    0.60072417609771
H           5.63792960941650   12.90320465097009   -0.30383179940587
H           6.98391623883032    7.19827755546265   -0.92092863053462
H           8.92857146118641    5.59038615360409   -1.56555308906747
H          10.03565909547855    3.27707220229627    1.04922240853779
H          10.10707431021571    3.44666017480151   -0.71103113153193
H           8.04432667622105    1.80034335319908    0.84458270024583
H           9.41164803885865    1.14432718170610   -0.06181640961609
H           8.09505044881366    1.96097566431804   -0.91257904915171
H           1.93926697248330   13.38632771424192   -0.48461898144888
H           3.45401210631286   14.28933574823217   -0.64987762318747
H           1.93733100514441   13.83621390973069    1.97045376649160
H           1.94250059578038   15.33935746870323    1.03963621995591
H           3.42942943809909   14.76372266665406    1.80198505739986
H         -10.32630437030416  -14.53609736769914   -3.83230227299676
H         -12.56254314373965  -14.59167459774505   -2.54015896578116
H         -16.42367023930296  -13.09606308669360   -0.71266086338183
H         -18.36966787904569  -11.50705189354909   -0.06955854986784
H         -14.90789551215780  -15.13726190573879    6.42334379246398
H         -14.20341129693012  -13.54658421079972    6.55794828753493
H         -13.50352298897257  -15.93408478533200    8.35279150150817
H         -14.51300968752405  -14.55974188247532    8.80780517213591
H         -12.79281639835219  -14.32472127768624    8.49051566697446
H          -9.43424868148415  -17.06618351240198    3.68571764489864
H          -9.14544901392078  -17.04369017040235    5.44366798155668
H          -8.64478088734803  -14.75128169567298    3.48321773856815
H          -7.40882349834521  -15.75486343100724    4.23476752315628
H          -8.37378524517771  -14.65583691225241    5.23188491100475
H          -7.95360183817622  -13.99019391299368   -4.31748708344944
H           1.01716723098586  -10.44972065507279    1.29224561466223
H          -0.00894655693934  -12.21599044929265   -4.21985054307130
H           0.29517201247696  -10.77347380593680   -6.35908267395956
H          -4.35933871941969  -16.40309196818382   -0.49837234536225
H          -4.87631955316103  -17.40890571061501    1.83659457227587
H          -4.93194614453262  -16.71200988250225    4.34474315318790
H          -4.92766568317424  -14.96508357556768    4.65213469013481
H          -2.43150448733644  -16.70700686832805    4.36776012350979
H          -3.08055164324685  -16.07610907234579    5.88584174123053
H          -2.43853639000515  -14.96747532066661    4.66755094095418
H          -1.02313250435416   -9.06245566710721   -7.81238826575216
H          -2.50520610770611   -8.42157550681122   -7.08517890256188
H          -2.33488055147688  -10.95794803296636   -8.78292801047447
H          -2.98626910285778   -9.40265551845172   -9.31265607542515
H          -3.80449565059915  -10.31973486313707   -8.04200418195134
H         -22.83744964739079   -0.44739333456002    7.39510953308798
H         -23.56403398468481    2.02314556350779    7.67833394188955
H         -24.34421860562363    6.19914839304095    8.79600629077057
H         -24.64692101457282    8.54810562408768    9.85166408935323
H         -27.17068982409711    8.47952702502198    0.53298995873011
H         -26.59791568507424    8.65815985225349    2.21097906690397
H         -29.37220266001659    7.64374764156001    1.43081900739231
H         -28.99781507645691    9.27858910792568    1.99187438429606
H         -28.76688566629399    7.90500094332495    3.07488289355865
H         -26.92543857648572    3.01118224516366   -0.67014733524886
H         -26.51090260836365    2.17478905944029    0.84718912518755
H         -24.50078083089143    3.66282181561704   -0.90768435421433
H         -24.72242834300829    1.90878419826316   -0.86160068754170
H         -24.14460341092850    2.75761076301497    0.57273629521857
H         -25.74496348849997   10.21336236169275    8.15086825501918
H         -23.96549928941001   -1.52913628518884    2.81138507012139
H         -17.90911333399674  -10.88672846187632    4.71198564869928
H         -22.54733636443556   -9.30470715289406    1.43434976236734
H         -22.71061349376014   -9.52388944792246   -1.14926658009819
H         -23.07380016492016   -5.32936817605438    7.28558675975362
H         -22.16915757311322   -4.76923398613365    9.65532332532656
H         -19.90719738499615   -4.48922511402600   10.91319224703196
H         -18.48036939498531   -4.33150746550001    9.87630450868608
H         -19.60568677589893   -6.97275172572909   10.92640689957896
H         -18.15655918111445   -6.15665486858240   11.52449397718605
H         -18.19333318465286   -6.80630482723815    9.88090813925460
H         -22.36068758745346   -6.32284397576585   -3.02839476065868
H         -22.44694436228135   -8.07206914929358   -3.29172272059312
H         -19.88885439102905   -6.47810928990838   -2.76091764822150
H         -20.39918025001482   -7.10380530970372   -4.33295915773108
H         -19.96388737106465   -8.22036441063162   -3.03353140008900
