272
 SCF done       -502.683832952157          0.000455031772
C           3.64376402842932    0.91132115028219   -1.44148836535110
C           3.51547832222445    0.25154931863995   -2.64889316009179
C           3.51472325280160   -1.12656594272990   -2.50142102401463
C           3.64939315512454   -1.55435102584041   -1.18699260788401
S           3.81578542407433   -0.19448463340474   -0.11279293637713
C           3.55992267528110   -2.91006044611463   -0.78405918192669
S           3.17829675952315   -4.08300977514213   -2.02206726196459
C           3.08433494970519   -5.39695026131400   -0.87366021583944
C           3.38775340917723   -4.93919901642238    0.40313124535779
C           3.65441702354659   -3.53412593196872    0.45405709181651
C           3.43683125377297   -5.78994280324146    1.57958465851554
C           3.79469474970406   -5.10299924955231    2.81144685752781
C           4.05927861990365   -3.70014172108813    2.86289755881376
C           3.98906675810585   -2.84437988368312    1.68814584737157
C           3.90208493641953   -5.71379333326601    4.03783354695881
S           4.33232772823568   -4.56682489588507    5.25849251835079
C           4.36610246067581   -3.25859675873871    4.12768360817508
C           2.64874507881204   -6.65238396356211   -1.36522447818457
C           2.35247314829676   -6.90218355949792   -2.69908171945676
C           1.77851820522958   -8.14297680998945   -2.92668351417694
S           2.25167566836810   -8.03185862796006   -0.37974353419017
O           3.20114517856428   -6.99722409306039    1.55334321149836
O           4.19917969485154   -1.63391297281003    1.75295844871231
C           3.69091320624080   -7.14910292751254    4.35527846485751
C           3.86484228855486   -7.47342334404051    5.83160199512328
C           4.68981395773148   -1.87185980909445    4.54917712979308
C           4.96505905196041   -1.74200677256458    6.03991136028501
C           3.60089902575837    2.31293863341659   -1.21691904866823
C           3.65781813655720    2.96559325336686   -0.00689248838670
C           3.50828974100745    4.34688876901574   -0.15721780736378
C           3.35295607897910    4.76734793916710   -1.47217232550557
S           3.38201480169588    3.42455351457645   -2.55584325859256
S           3.40336337083740    5.65999338997622    0.97699867258388
C           3.09568460304587    6.77969856565624   -0.33638656749323
C           3.12858415829257    6.16077879500618   -1.61176264763684
C           2.84068840552350    8.13267532577798   -0.15985291467210
C           2.56557864723129    8.88638279639457   -1.30947215122476
C           2.60783802904673    8.26991546994770   -2.58479546271100
C           2.90824156829218    6.92588661018293   -2.76582854559717
C           2.19288339979797   10.25168225624748   -1.44067170462350
C           1.98459171123207   10.65649821565406   -2.74883282940512
S           2.24674465974357    9.37723416000430   -3.89426624380965
S           1.86412393213038   11.54404181850481   -0.34283011882507
C           1.46874575528619   12.59062096162604   -1.65918031589239
C           1.57595822857914   11.99805414462101   -2.87643468309303
C           2.86145196302083    8.71966175675847    1.17213027018719
C           2.99414873733533    6.36194613138413   -4.10428441176550
C           2.14119354390821    8.33870888709257    2.26388907472117
C           2.45088742106097    9.12314586375212    3.39386412571017
C           3.40571341056353   10.07489217638509    3.19947275108270
S           3.95135058584439   10.01850143492201    1.55899446045245
C           2.05544144385640    6.40117030653307   -5.09111186975810
C           3.78999738427651    5.30991631864850   -6.22704227292205
S           4.45896649986334    5.60494567805501   -4.65913735279193
C           4.57534629768512    4.65410168521948   -7.30952233956996
C           5.71772859723090    5.54968306393609   -7.79107386626289
C           3.91883226329437   11.08642671382515    4.16446804803542
C           3.43681182714644   12.49056013645446    3.79547752887768
C           1.62224562124041   -8.87362904107851   -1.76397952627972
C           2.51846974846013    5.79626231211536   -6.27736867921864
F           1.74968371077271    5.69951820021514   -7.37770952419095
F           1.84364451817457    8.93872106765260    4.58059392737580
C          -9.02771191274364  -15.53460578468116   -1.00781330775023
C         -10.23385901760768  -15.57263253475429   -1.68287444031005
C         -11.31527329449130  -15.35688523448838   -0.84053779860588
C         -10.96779897553666  -15.14807003646526    0.48864493117288
S          -9.24892632294759  -15.31007993785095    0.69913844421783
C         -11.85718892807328  -14.68256354091029    1.48841313683884
S         -13.49558236918587  -14.31494541708826    1.00448457426684
C         -13.87836380591641  -13.57857292458584    2.54445256033929
C         -12.79395458390809  -13.68110534059711    3.40754786415119
C         -11.65280051541889  -14.30256659121691    2.81095651794552
C         -12.79154725903080  -13.19776243832404    4.77798011296555
C         -11.51381860998036  -13.31941261936889    5.46535213782491
C         -10.36157466701717  -13.90730584546895    4.85708112276070
C         -10.39775027321035  -14.47925117410254    3.51726354198482
C         -11.27441692392743  -12.85902488426964    6.73836726083904
S          -9.62737382248017  -13.13599138095304    7.18708983946684
C          -9.25658223184000  -13.88347489244001    5.67149774630742
C         -15.11861423404530  -12.90164589227182    2.64908733981441
C         -16.04479301196347  -12.80802605090021    1.61837869654228
C         -17.08853570651588  -11.93258777758078    1.87599263663112
S         -15.60321805721562  -11.91699021376646    4.00060822331458
O         -13.78015834365251  -12.71097114339079    5.32476846079386
O          -9.43093455306062  -15.06209131342862    3.02973144842138
C         -12.23548779077187  -12.20211723302648    7.66027362084689
C         -11.60386913096298  -11.74618716350465    8.96726136767045
C          -7.86918511143142  -14.32580612517579    5.37213354746866
C          -7.15767221520352  -13.29653272544791    4.48776713638043
C          -7.70503388173788  -15.48127867141025   -1.52925531667959
C          -7.29613421919958  -15.22055297822791   -2.81883994007747
C          -5.92627966227467  -14.93902072553843   -2.87623985767236
C          -5.27737186364990  -15.01965085523192   -1.65159524891327
S          -6.36782691544141  -15.47231512354147   -0.39512729313458
S          -4.89033641167687  -14.30099245821539   -4.12238568701496
C          -3.63449795772452  -13.98699572145716   -2.93437466736448
C          -3.95935159691943  -14.50193956256890   -1.65599109391993
C          -2.48113291463763  -13.24620487756647   -3.16201501825694
C          -1.69509577458868  -12.94048719413711   -2.03490207923808
C          -1.98884383922739  -13.51450936379348   -0.77138375345239
C          -3.08386330111550  -14.34241919061442   -0.56821507114989
C          -0.64350168317585  -11.99767857884944   -1.90774676191907
C          -0.14584211251661  -11.87313453914453   -0.61637124721051
S          -0.89289106566587  -12.98456235992236    0.49136028941057
S           0.02955725796672  -10.79256425480472   -2.94622248500772
C           0.93346443541198  -10.10542055157056   -1.60620789474998
C           0.75052455329411  -10.81525543791022   -0.44176840352448
C          -2.09876658265024  -12.76411691629824   -4.47447419486864
C          -3.36418093456686  -15.01739992645699    0.68427390773721
C          -0.85399281113739  -12.80888409771216   -5.03465929186655
C          -0.84028196476198  -12.25450675983576   -6.32874666794297
C          -2.03767071646992  -11.77618909451258   -6.77064077535274
S          -3.24410356529647  -12.02733091350329   -5.55675822709461
C          -3.70133142969338  -16.33356603635244    0.82977950731023
C          -3.73879380599116  -15.65765946755113    3.07041569621749
S          -3.31232598804047  -14.21195855161235    2.22335705493211
C          -3.90721880797827  -15.71656975586142    4.55158770145739
C          -3.17384386670376  -14.59232154932287    5.27136084230678
C          -2.36191927298026  -11.16134272441326   -8.08786524336366
C          -3.28073489883128  -12.06497032483793   -8.91143500719090
C         -16.98226239933371  -11.33522356665148    3.11749659337220
C          -3.90149153239932  -16.67707283237797    2.17847159273937
F          -4.21789558432234  -17.92697515034370    2.56345714682115
F           0.28060444630568  -12.19818231361684   -7.07140407035053
C         -23.10620416480924    0.21964648142532    4.85086449888868
C         -22.80903108564631    0.91487921713105    6.00761647998838
C         -23.24200703181802    2.23018671182242    5.96009119986933
C         -23.87507986191169    2.57543491324906    4.77292840443023
S         -23.94015594316242    1.21065923889540    3.69358083949424
C         -24.36855460824718    3.87479565384181    4.49492515678681
S         -24.14767929694811    5.08509652209270    5.73471579200310
C         -24.90057078972426    6.33712942226678    4.77754675574244
C         -25.30374325788929    5.82414192812514    3.55212029431547
C         -25.00548312364460    4.43252417732052    3.39272017621976
C         -25.96727494159366    6.60453462221023    2.51998325213415
C         -26.28598056363843    5.86429455867560    1.30215290493583
C         -25.98713953921566    4.47312581692371    1.14539001830090
C         -25.33409056745445    3.69108798759314    2.18929767470303
C         -26.88512218408953    6.41044013899512    0.19411173518642
S         -27.10527551020149    5.21434272845591   -1.03657212950060
C         -26.38531960252262    3.97367204454077   -0.07033085873560
C         -24.97648036111478    7.62836787599366    5.36668216087218
C         -24.48242371358723    7.93019917306366    6.62423180652323
C         -24.66773787070660    9.26317446988443    6.99419860729551
S         -25.68655394506664    9.04359404095646    4.63852038818729
O         -26.24794261165348    7.79206492688319    2.65379171604844
O         -25.07930752509347    2.49631110465836    2.04823101876062
C         -27.36981748661226    7.79810743671114   -0.02250343688422
C         -28.75677386840720    7.99142856222692    0.59760060922455
C         -26.22648358912094    2.60146061049993   -0.61780037468165
C         -24.82180229778424    2.40724287939080   -1.19654336980614
C         -22.77852073471395   -1.12983235845199    4.55420729150712
C         -23.08762918549582   -1.83739109548661    3.41547986534095
C         -22.55934621640758   -3.13100851820479    3.45192821623977
C         -21.85330029092638   -3.43007787820109    4.61042939264704
S         -21.83771743651328   -2.08261425681889    5.68916557117866
S         -22.54752038307959   -4.44290736903267    2.31268584621525
C         -21.51943801955070   -5.37721184369275    3.38305151958059
C         -21.25227499448154   -4.71366739479689    4.60781484175603
C         -20.99660690940061   -6.62648490166422    3.07766694826395
C         -20.12191678984078   -7.19831090176681    4.01668679827230
C         -19.86725353289209   -6.54124793355637    5.24726365695267
C         -20.43905342070788   -5.32073834370149    5.57877162150934
C         -19.33158736679774   -8.37103418529109    3.91560582542150
C         -18.52649503564673   -8.60876687377188    5.02275230275483
S         -18.74302038730075   -7.41782171639368    6.26868190157938
S         -19.02201949335759   -9.52568706545036    2.66920909084851
C         -17.78722710033341  -10.29458652182135    3.65167402491108
C         -17.65832979353472   -9.69452853255170    4.88330003613722
C         -21.31598036929023   -7.32262371951013    1.84347587127020
C         -20.19751083646302   -4.67865566920175    6.85981755345353
C         -21.75025442578431   -8.60857449301503    1.70763123195029
C         -21.94987625379208   -8.95417322115030    0.35646086233204
C         -21.67880389546067   -7.96797959391446   -0.54383133683340
S         -21.15733440531530   -6.54736027394434    0.29451749996173
C         -21.12221334284266   -4.20528154093378    7.74312553902949
C         -19.15442068196463   -3.67202390288102    8.89648719702226
S         -18.58030960251614   -4.42307838002465    7.44783631545234
C         -18.22374859869121   -3.19448745947326    9.95697742436734
C         -17.48689675823147   -4.36156677077082   10.61566573785958
C         -21.75054261436216   -8.02563291874766   -2.03049861694430
C         -20.35669975068971   -7.97288755064906   -2.65787456022610
C         -25.30320619847097    9.97715221854038    6.01946577112649
C         -20.51658538622456   -3.64744457205788    8.88692824784505
F         -21.23864950183044   -3.12263110106987    9.89418025403820
F         -22.38426575704638  -10.17309947361027   -0.01325119027947
H           3.41255774488247    0.76078972113584   -3.59122856597041
H           3.40646306710328   -1.81642672220228   -3.32044614147075
H           2.53628465970885   -6.17665574418080   -3.47257185418682
H           1.46799171771975   -8.49925948016559   -3.89338141378320
H           4.38474171092434   -7.74148340405458    3.75007022721137
H           2.68853646594849   -7.43076309994829    4.01693602861339
H           4.87132936209987   -7.22565730496973    6.16284821493199
H           3.69603144155410   -8.53290484374244    6.00450092566255
H           3.15656930667191   -6.90826159962556    6.43417322588687
H           3.85928356793929   -1.22183396112178    4.25546441822248
H           5.55320812669827   -1.52846031977564    3.97017938828170
H           4.09681612175682   -2.05126814937445    6.61841879586150
H           5.19544921996500   -0.70977662919837    6.28948660681042
H           5.80967393180292   -2.36394098132432    6.32973459343567
H           3.78591280626362    2.45681709270406    0.93043447920295
H           1.17819122674449   13.59945512505441   -1.44300296581323
H           1.37292448062828   12.48378414351862   -3.81243609571565
H           1.40418947899409    7.55745594537343    2.26647419949710
H           1.07109997823452    6.81648194488944   -4.98096433478196
H           3.89977835436441    4.43602586103925   -8.13937592536618
H           4.98700548199603    3.71088359254027   -6.94152343402238
H           5.32622983514191    6.48777094168438   -8.17754780360440
H           6.27512401380661    5.05371239469377   -8.58133354394875
H           6.39557800345169    5.76910984126105   -6.96916584442408
H           5.01139654848246   11.06889550020663    4.16971410891518
H           3.56383677795481   10.82176584945174    5.16265597283168
H           3.78652223134853   12.75886333786803    2.80100073771125
H           3.81661325026463   13.21716959173848    4.50885080627570
H           2.35007220120817   12.53108201251238    3.80172152219961
H         -10.32306080331412  -15.73521932169370   -2.74194781786281
H         -12.33683050856192  -15.31565140104904   -1.17775950440056
H         -15.93303118988124  -13.35212681183319    0.69646764893225
H         -17.88716996317776  -11.72149911155248    1.18646522214167
H         -13.05482775466444  -12.90102434445295    7.85769227635129
H         -12.68900775662552  -11.35464707389719    7.13628300463151
H         -11.18558762909096  -12.59346263121678    9.50706559417624
H         -12.35012210547027  -11.27033445307781    9.59777137196907
H         -10.80513994304114  -11.03175668415604    8.77822810036143
H          -7.90939755710935  -15.27718783597783    4.83762988773661
H          -7.31908804334440  -14.45656302294499    6.30631036669187
H          -7.66747215061434  -13.21644388867989    3.53163210686047
H          -6.13319717607292  -13.60501972933710    4.30207412592738
H          -7.14723257314944  -12.32036262760128    4.96835233811418
H          -7.96116765798175  -15.17282957860696   -3.66039465178992
H           1.21742397081076  -10.54993238757734    0.48855592925446
H           0.00916290974290  -13.24575583322708   -4.56818901768732
H          -3.77325476407736  -17.03615878144168    0.02047941425428
H          -3.54340683352639  -16.68825028479960    4.89769937000709
H          -4.97557903159191  -15.67189193873722    4.79008220223769
H          -2.10930421082717  -14.63149790101021    5.05299953458975
H          -3.31221783283577  -14.68013672174302    6.34590852950293
H          -3.55183681391432  -13.62387343351366    4.95012646353171
H          -1.42758851946969  -10.99001827873353   -8.62657161585430
H          -2.85164220343206  -10.19689144420982   -7.93080385365434
H          -2.80188193613754  -13.02350498944598   -9.09745131715389
H          -3.50731487482112  -11.59853920368057   -9.86654715149218
H          -4.21192345417522  -12.24087356129864   -8.37745536296778
H         -22.29719205262003    0.47504016162347    6.84576926667228
H         -23.10291881585248    2.93432669713011    6.76205145482395
H         -24.00137831369348    7.19707086125783    7.24824033537250
H         -24.34637640777467    9.67296753636778    7.93516283659797
H         -27.41350694328776    8.00530747964702   -1.09358470024031
H         -26.67603538397234    8.49368302027657    0.45334552014218
H         -29.46601619369067    7.27884939511040    0.18143645451093
H         -29.11274651978963    8.99818966988898    0.39780742967018
H         -28.70158467931789    7.85128529009233    1.67365117669701
H         -26.97193157608552    2.43224661479611   -1.39731353661641
H         -26.37446547016984    1.87986412968326    0.18771640185863
H         -24.62133627249584    3.14355202268335   -1.97216224101534
H         -24.73381636988912    1.41307536422018   -1.62575847736669
H         -24.08080608831858    2.51060601833658   -0.40851799746527
H         -23.65706035033104   -1.42560474513632    2.60307800307945
H         -16.95323717730886  -10.02008892887072    5.62539047158273
H         -21.94942147304373   -9.27504120527186    2.52593008752211
H         -22.18555984166640   -4.27492156237009    7.60961057480320
H         -18.80470156682698   -2.65078665576999   10.70488900943103
H         -17.49374019663992   -2.50761563628782    9.52099672307313
H         -18.19591590372216   -5.04642759100951   11.07494877379869
H         -16.81180551774486   -3.99327957072751   11.38367654544710
H         -16.90899327444726   -4.90804295641765    9.87363625826902
H         -22.34443293400847   -7.18618392474676   -2.40057482381191
H         -22.25051109852892   -8.95416639132102   -2.31415541127778
H         -19.85552785513579   -7.04742832686177   -2.38324157224847
H         -20.43133147085248   -8.02211100416969   -3.74102557460948
H         -19.75377745461090   -8.80929348694081   -2.31201225628701
H         -25.56788711047681   11.01623266576441    6.04434269428074
