218
 SCF done       -379.375687164652          0.000267692220
C           0.25206404557333    5.40969611279453   10.94469377488877
C           1.14724550016403    6.37836145030508   10.53977672193438
C           2.25570686629137    6.08988567493746    9.71946465862585
C           2.54294492324645    4.79125258932208    9.24049172923512
C           1.62913510345045    3.78763573545737    9.65068287005536
C           0.51673905334823    4.09500933922711   10.47970838861881
N           1.58548285284358    2.47406266880852    9.39739823782267
N           0.52356498602317    2.05671993556419   10.03216691312127
N          -0.15405176812904    2.95885935641789   10.69118406573765
C           0.13361215940670    0.67604147972856   10.03376301720617
C           0.33683343695638    0.06868866241459   11.41753847793023
C           3.65285271220517    4.51615557588735    8.42003180005432
C           4.55281168229524    5.48245206474874    8.02162994250822
C           4.29739682927358    6.80234952549665    8.48926507177797
C           3.17326234271711    7.09261001495070    9.31374483379347
N           4.95483525468156    7.95318493928625    8.29826805447323
N           4.26125669766827    8.83925553448109    8.96392046802687
N           3.19850270530282    8.40237415652834    9.58445069078849
C           4.62169506072817   10.22786815623246    8.96883408060804
C           4.08428201294301   10.92411364591567    7.72190080016281
C          -0.88357865528346    5.65672702535925   11.78570378002403
C          -1.33327270958062    6.85335627662827   12.29593718562912
C          -2.48041579156501    6.74878410827230   13.09419301823092
C          -2.91795639662312    5.43595870374755   13.19356600079903
S          -1.89569539429732    4.34753666238472   12.29491886838903
C          -3.13481491611740    7.90698500165770   13.78613025558766
C          -2.25975635868407    9.15317425841197   13.86799062139179
C          -4.02630076808820    4.89521002877219   13.90933248549149
S          -4.06032008357692    3.18599303853263   14.25815608548581
C          -5.59034606207316    3.30542941965850   15.07738904797971
C          -6.01525421981678    4.61456157768854   15.04967601969254
C          -5.15251093086860    5.50953143464896   14.40408202350493
C          -6.21425914058122    2.15048591726166   15.64571548875693
C          -7.13492541455215    2.05577661433394   16.66310441746437
C          -7.54147097574475    0.74190108078352   16.96856779462708
C          -6.92084511743813   -0.17272764660358   16.18084530899153
S          -5.83940180515062    0.55517176057474   15.06145548572370
C           5.67887250610576    5.19164896521773    7.18288308757547
C           6.65542224038086    6.05983411564600    6.75695487459179
C           7.63216948098868    5.47734590708493    5.93619761428152
C           7.39766719405794    4.12637160989178    5.73080874661231
S           5.95896803219591    3.59573279536518    6.55709376571509
C           8.76831745624624    6.23391282652000    5.31635721875120
C           8.54816348058461    7.74260236213445    5.28128338977329
F          -7.58717306935516    3.10831731299176   17.35598799924528
F          -7.18924821359008    5.02036239537448   15.55076046984874
C          13.10864302084461   -4.20778175994586   -1.54129484666646
C          13.24470588951072   -5.06942268149784   -2.61006206900983
C          14.49251146403098   -5.35637773684842   -3.19739398839948
C          15.70833590229777   -4.80301333453567   -2.73489268530088
C          15.58073026028557   -3.92067787905315   -1.63196083443329
C          14.31206408587044   -3.62829854688179   -1.06132953095539
N          16.49381020870190   -3.21516371048951   -0.95369166041088
N          15.80048843295460   -2.56309262873980   -0.05942738040874
N          14.50923201126541   -2.76024245921685   -0.06478077548802
C          16.42310718661020   -1.70432771390255    0.90628058080019
C          16.51030338904937   -2.40176839215716    2.26010274923537
C          16.94782656066015   -5.09215221176804   -3.33705086236917
C          17.07691725869643   -5.91719309325414   -4.43454938685788
C          15.87073999800271   -6.48579774252900   -4.93258319680553
C          14.61475304260674   -6.21572313705485   -4.31904431034665
N          15.63908235835507   -7.31596293871049   -5.95756474104486
N          14.34650306303997   -7.51083643994676   -5.93360038316829
N          13.68020910050953   -6.89173325366790   -4.99648786788366
C          13.68992387209545   -8.32025884028666   -6.91936110666385
C          13.33036605953914   -7.48444477234646   -8.14446188511202
C          11.85388941353134   -3.87039282807476   -0.93363201297618
C          10.60900152083961   -4.40623750150688   -1.17066588334763
C           9.57472941621578   -3.83558229090566   -0.41683373760747
C          10.03595077928061   -2.82414579289672    0.41304028722526
S          11.76314219256611   -2.62173024030432    0.26258487543944
C           8.15109799660484   -4.26691728018696   -0.59304472177501
C           7.35296321999947   -3.23486118628443   -1.39167342850845
C           9.33634509469060   -1.95261739063753    1.29873321483105
S          10.16947750552623   -0.55010567654008    1.92290365181216
C           8.76885188748971   -0.02078676018795    2.80692207310214
C           7.74264258065780   -0.92106772714658    2.60649824019617
C           8.04269371042188   -1.99723551251779    1.76996824357179
C           8.74793780153201    1.18145194831195    3.56397932156687
C           9.76616790602039    2.09254744384968    3.75559258073509
C           9.43467742141112    3.21029650104444    4.52472399430283
C           8.12543840296109    3.18158116116299    4.94970270315578
S           7.32145785183046    1.73852581347819    4.38673954368103
C          18.33890346460215   -6.18695048033449   -5.06118453588938
C          18.56075498994414   -6.87989316949465   -6.22661802852640
C          19.90876185469232   -6.96041461705419   -6.60612293397560
C          20.73944541327433   -6.31526268224584   -5.70468628679765
S          19.83620870464476   -5.61723855670548   -4.38902507565525
C          20.39718637297318   -7.69534664153685   -7.81802367559730
C          19.42842728782341   -8.76730018691309   -8.30714974333045
F          10.99536569431289    1.91826966357283    3.23882524308590
F           6.53203323542584   -0.77045982383490    3.17197850963212
C          33.10092381591938   -4.91040683345412   -5.42510909646704
C          34.40710468638650   -5.05823174022360   -5.00765839016263
C          35.50509603642104   -4.82243936056131   -5.85936784488822
C          35.36322406767747   -4.41662645466304   -7.20540631154009
C          34.02449727085347   -4.25384033595834   -7.64292868700196
C          32.92875787308228   -4.49454954102652   -6.77102711240754
N          33.51742310227869   -3.88301439320644   -8.82549207257033
N          32.22403089317751   -3.90589804431649   -8.64471703100489
N          31.80753827074255   -4.25650595377871   -7.45729413928651
C          31.30393710298695   -3.57271457401685   -9.69460923610992
C          30.38622922851856   -4.75251940221351   -9.99106184157517
C          36.46912773277018   -4.19499631688897   -8.04923714798371
C          37.77410333707869   -4.35551818117081   -7.63800988213475
C          37.95521509065171   -4.76215349773719   -6.28660212455319
C          36.84475205468817   -4.98700359230007   -5.42372387137632
N          39.06384778401360   -5.00018131586411   -5.57400684475207
N          38.62399551544008   -5.33494014192433   -4.38941011841765
N          37.32759856759002   -5.35033487930956   -4.23034417247753
C          39.51883868025133   -5.71233458623470   -3.33346915360334
C          39.86260794605951   -7.19610729023653   -3.42686082566666
C          31.95264751837597   -5.16014723400083   -4.60216341441439
C          31.89851217833089   -5.50007013855770   -3.27027858490906
C          30.60324742355946   -5.68438736078620   -2.76698573646766
C          29.63679942707472   -5.49068657469920   -3.74204481393314
S          30.35889357211819   -5.06250516858312   -5.27200538097836
C          30.36656722878092   -6.11536845750698   -1.35198195265380
C          29.93036640511706   -7.57964981316005   -1.28194897431900
C          28.21575181203645   -5.59878930981164   -3.68518104263614
S          27.32520478248290   -5.68761549169134   -5.18442733449773
C          25.79939325146515   -5.79155544407067   -4.35672762020744
C          26.02132868483381   -5.75026855040149   -2.99585090978998
C          27.35886418670962   -5.64813770497505   -2.60837853557163
C          24.56381718311443   -5.92350026855361   -5.04687365756171
C          24.35407093309995   -6.04312208693708   -6.40507894178277
C          23.02093322825288   -6.19103628666334   -6.79486943217847
C          22.15996180613012   -6.18215574245302   -5.72151242914064
S          23.03312584983473   -5.98323060325234   -4.22424432951174
C          38.89602080472780   -4.13478817946717   -8.50851413051576
C          40.22772734843825   -4.28141573319650   -8.22563504117569
C          41.07670237024042   -3.98483888534372   -9.31490727439401
C          40.37079321964846   -3.61497562673387  -10.41970224080709
S          38.67321372174060   -3.61692573034249  -10.15858651930006
C          42.56696171889249   -4.11193818875659   -9.26094348357847
C          42.98715070614438   -5.58113632198698   -9.32142348666725
F          25.36227739610357   -6.02062653019731   -7.29509992200905
F          25.01968250496451   -5.81129778489573   -2.10085239033726
H           1.02566738246062    7.40403795443151   10.84960698860595
H           0.74777650467154    0.17352368779107    9.28496110878343
H          -0.92111292960525    0.61805439706688    9.75227357939221
H           1.38651052250721    0.10846407142456   11.69856100979296
H           0.01328698913791   -0.96807176682137   11.41772873042316
H          -0.24599444949284    0.62153804102517   12.15006178578134
H           3.78932256112728    3.49404136910302    8.09823589206626
H           5.71163549395480   10.29084910451030    8.99888772748554
H           4.19556634672944   10.66982286409793    9.87113497504141
H           4.49078356109248   10.45600550677133    6.82869368759721
H           4.36947335947951   11.97220145045944    7.73080595393940
H           2.99958429794513   10.85538198225626    7.69148686963013
H          -0.83798120327529    7.78399993304581   12.09276111208725
H          -3.40819848377353    7.59505486753043   14.79773724908191
H          -4.05963625401590    8.15922149073129   13.25726678013268
H          -1.30583509820403    8.92179586002204   14.33587680180792
H          -2.75958824589747    9.91258754009188   14.46502676083578
H          -2.07623489981395    9.56808734534715   12.88010561818053
H          -5.39468932297489    6.54713341790019   14.28619530823384
H          -8.25256819125683    0.51354626162765   17.74040544390078
H          -7.03137227587669   -1.23804482318690   16.18868793975559
H           6.63815870910716    7.09404782236127    7.04341290166353
H           8.91292987055326    5.86819781629048    4.29617431825764
H           9.68545517643329    6.02214528203636    5.87569565665107
H           7.60813042654231    7.97954796267239    4.78888085039033
H           9.35593620700476    8.21861984426587    4.72973154753132
H           8.53171740509789    8.15825524555967    6.28530843146572
H          12.38060890793735   -5.54530357635689   -3.04556523615967
H          15.81860084705652   -0.79812959945595    0.98966230749687
H          17.41684494355034   -1.46207902732753    0.52620797305986
H          15.51339180534971   -2.66829122801694    2.60223510305712
H          16.96709548024428   -1.73838635542007    2.98878126957006
H          17.11098538932680   -3.30489991806266    2.18227636465465
H          17.82545827448283   -4.62703141165996   -2.91232918376099
H          12.78984862826041   -8.73122951211805   -6.45854515449095
H          14.37301806350026   -9.12659320478059   -7.19420038276801
H          12.66142688171896   -6.67512005338786   -7.86232588666850
H          12.83645203741722   -8.10637276627256   -8.88550882330893
H          14.22905632663733   -7.05920790160280   -8.58468000903999
H          10.44035752105063   -5.20288511367303   -1.87336279599374
H           7.68281755981861   -4.43583651943278    0.37763649562827
H           8.14225228537152   -5.21724484406422   -1.13036946632640
H           7.35786243910927   -2.27095177628444   -0.88945912868145
H           6.32255688002599   -3.56198343683713   -1.50950419988486
H           7.79141708603070   -3.10735277100954   -2.37867777617131
H           7.32546727340216   -2.76288725345757    1.55065476103238
H          10.14850800233082    3.97069966577997    4.77341136329344
H          17.74735044486300   -7.31470760521510   -6.77534385920621
H          21.35807696145055   -8.15905590782332   -7.58016715426693
H          20.56929397016221   -6.97723248753786   -8.62654098788924
H          19.17500676305119   -9.44911826106055   -7.49903174763796
H          19.88784422889742   -9.33897576737537   -9.11048192768926
H          18.51300824175743   -8.32243572667207   -8.68805478711487
H          34.63043089205686   -5.37277746830898   -4.00063063275453
H          31.90568423950717   -3.30063013769710  -10.56334170831346
H          30.71005072454273   -2.71141407434234   -9.37446299061643
H          30.96376030001932   -5.60572082587621  -10.33869079651717
H          29.66804145537818   -4.47932476960853  -10.75854536404642
H          29.85013750155955   -5.03498641475382   -9.08856039756650
H          36.26155972422684   -3.88715967067981   -9.06364182501702
H          39.01833280032932   -5.49298098330056   -2.38861854973272
H          40.42151676019321   -5.10535565103145   -3.42989374893012
H          38.95986527122081   -7.79606825358135   -3.34155443408806
H          40.54346868765060   -7.46989512803900   -2.62591727435613
H          40.33740820784386   -7.41055130870352   -4.38122050640965
H          32.77728064920890   -5.61306503820635   -2.66050133331045
H          29.61624909299707   -5.47824870996923   -0.88148805423930
H          31.29670301586041   -5.99305733529325   -0.79366740927096
H          29.00768595802845   -7.73345263974933   -1.83538807882451
H          29.77100373181737   -7.87776349051465   -0.24838279747973
H          30.69778072520392   -8.21855941719406   -1.71276505636503
H          27.65119409285043   -5.59695141065396   -1.57826749194049
H          22.72206852626751   -6.25830765707432   -7.82264880357036
H          40.57574827162597   -4.58983306700463   -7.25716221603155
H          40.75031077205380   -3.33418707831541  -11.38268984804612
H          42.93255292625459   -3.66956917193876   -8.33139080832307
H          43.01182732311330   -3.56948686253233  -10.09737219535753
H          42.55135809313886   -6.13380827354719   -8.49239540635118
H          44.06984548227474   -5.66984039991033   -9.26855121209852
H          42.64667804512220   -6.03295836491921  -10.25056362462558
