224
 SCF done       -395.663872349645          0.000203681852
C          -1.45775461187400    6.24962623512336    5.81734117845283
C          -1.88488650915880    6.64758612659489    7.09718745216919
C          -0.95479563166369    7.17640565930828    8.02254149898014
C           0.40261447953281    7.31104505425038    7.74998114220222
C           0.82679352512857    6.93703651867428    6.46197938729899
C          -0.10794554010398    6.42627294018898    5.52927423129646
C          -3.20298582642769    6.62055761348577    7.64070938562534
C          -3.25928599603869    7.07762732594069    8.90770524960996
S          -1.72736807429865    7.57877718546239    9.53189049791397
C           2.13169399670595    7.01792481444153    5.91454169330015
C           2.21675973961745    6.57201609885639    4.62913320072672
S           0.66550967906913    6.02705619231829    4.01876130042269
C          -2.35340893032064    5.66457526217672    4.83775951566351
C           1.34736538807563    7.80606717130534    8.73226257125124
C           2.58232586932492    7.31065733045429    9.03584234651011
C           3.23286273082657    8.05645802348697   10.04280621601960
C           2.52112335202171    9.12514427488351   10.50346964293878
S           0.99328444928736    9.21238801835254    9.69553129062288
C          -2.38015519340940    5.88511071022972    3.49062827957435
C          -4.04536009405571    4.25565526006481    3.64378016064391
S          -3.52575041743352    4.45431003005436    5.28108823656213
C           3.36626587233072    6.53248649517140    3.79113221398832
S           4.93869836307567    6.93110926182409    4.41771811977957
C           5.67131301234916    6.67429869610809    2.85825716609748
C           4.72627942675030    6.30157743027437    1.92978860972745
C           3.43522707206095    6.21467854747204    2.45416098558373
C           7.07840466968085    6.85726381091442    2.66073603624691
C           7.95934389274113    7.09729117488664    3.70642513461902
C           9.32564331099604    7.28257500752486    3.52009423926107
C           9.92861200404720    7.26259667980621    2.26975255680259
C           9.05978714412790    7.02332656496054    1.17912276890168
C           7.66122202101021    6.81188807931248    1.37234345847485
N           9.29707675267231    6.92839121597775   -0.13757746110537
N           8.12905095078535    6.68014328609200   -0.66039802520064
N           7.12141527381862    6.59944859834472    0.16301349949330
C          11.33234604033292    7.47837733155821    2.08278528213686
C           7.95247839632411    6.55032434821067   -2.07862628113883
C           7.65375308433385    7.90932795661196   -2.70470203833717
C          12.01387761886841    7.64551124523432    0.89866334671144
C          13.38261095141588    7.86014626446751    1.07029765893467
C          13.77637373728896    7.84630528701658    2.38886975051565
S          12.41879292632527    7.57654287947191    3.44112814443365
C           2.87955517883099   10.10028533747026   11.56969174207572
C          -5.15310153381822    3.32619790193859    3.28922101848829
C          -6.51206760232620    4.01994929292841    3.41225387122243
C           2.10436413722931    9.81730226060134   12.85811337947326
C          -3.34459977930927    5.09580406553041    2.82880877993905
Cl         -3.60084982263680    5.18455743228705    1.12849402595683
Cl          4.80080649238804    7.64235780622448   10.62422582943316
C          17.61642484085757    7.91353215821496    5.59931340080027
C          16.87172793088406    8.07543805019023    4.41394132167066
C          17.52324921199070    8.45470788407926    3.21483349254259
C          18.88938306930856    8.70085054455344    3.12764019543735
C          19.63194059644819    8.54940057026879    4.31543932216009
C          18.98530130548959    8.14165083403774    5.50810204474415
C          15.49125673923167    7.83644265464100    4.21006101843133
C          15.08503858566184    8.01449932742680    2.92027407666901
S          16.40546229436298    8.50602260369029    1.87818855057231
C          21.01093887545089    8.79437763044664    4.52115495431963
C          21.42863404794824    8.55840737985866    5.79807755219757
S          20.11590886202478    8.02608863650445    6.82997118539614
C          17.00300040959655    7.54064334704154    6.85816211512687
C          19.50035850885881    9.06748624347757    1.86595560456451
C          18.99239690380640    9.88432892127386    0.89613300910209
C          19.82739368454546    9.96753276444770   -0.23793650984708
C          20.96858644465451    9.22410464224595   -0.15750393617381
S          21.02336336286052    8.39054331429872    1.35632985401871
C          17.49470585105000    6.69887060758315    7.81448581348991
C          15.52949171540905    7.37724288715389    8.87772029192101
S          15.49109128371708    8.23503377050163    7.37639758786582
C          22.74693591094632    8.68014982032690    6.31849594636317
S          24.01555107568511    9.38995950264958    5.36431463696614
C          25.17658764634142    9.12669558791364    6.63605597939230
C          24.58471261562184    8.52026480665747    7.72049072009309
C          23.22058847551910    8.27854479431049    7.54655903990979
C          26.54419831649290    9.52586479423198    6.48443089135894
C          26.98436908157158   10.30973756528328    5.42668554286247
C          28.30845484804732   10.71074859021430    5.27946042166884
C          29.31344110060352   10.34484821523308    6.16460610144102
C          28.90352280440753    9.53271626350371    7.24810561447397
C          27.54004230779527    9.14273120498941    7.41326966719597
N          29.59441852802419    9.00081882071756    8.26723672810330
N          28.70043929482130    8.35497828955800    8.96267923938865
N          27.47323870152708    8.39437839894384    8.52434745038105
C          30.67584403308030   10.75660067667630    6.00183899031212
C          29.04304653721345    7.67130522268049   10.17702684526792
C          28.98149255105853    8.62826097630436   11.36379143982667
C          31.78052063291670   10.33563781370491    6.70671768829121
C          32.97043777269143   10.93114224683710    6.28366603964323
C          32.79616148760704   11.83034092693527    5.25654165310210
S          31.12323793217395   11.92919588396348    4.79345045145183
C          22.03511745558490    9.04132882392400   -1.17990165809311
C          14.41147495424261    7.48842151998679    9.85424797080616
C          13.21834672243646    6.63242988940903    9.42254115436500
C          21.75507612435711    7.81411326905430   -2.05089649293919
C          16.65167088068987    6.60424736443317    8.94223417651382
Cl         17.02531458613815    5.59633582983845   10.28753896746837
Cl         19.43309547955709   10.93832785378523   -1.60429414918941
C          34.89842363577697   15.30504603115311    2.32932170827510
C          34.76030224547063   14.25576155154771    3.26004446655554
C          35.91029242424684   13.67347838456713    3.84851402236284
C          37.20790923005661   14.05849227305566    3.53508520556734
C          37.34708952028809   15.11692074058696    2.61495204528797
C          36.19773928414583   15.70406393709299    2.03258143502453
C          33.57077777085888   13.62801420741933    3.70053736985949
C          33.77719282171648   12.63025649628821    4.60778438793520
S          35.47875584178247   12.39854519169721    4.95561485830444
C          38.53797448079065   15.76453031575839    2.20527657153073
C          38.33314519492502   16.79602952940926    1.33629061283963
S          36.63234012392908   17.01723066664163    0.97153306110907
C          33.76093886567868   15.97017430871764    1.72676256874579
C          38.37130307032709   13.40490832144912    4.10004239101275
C          39.51945045048836   13.04078276929269    3.45606210698936
C          40.44604519077905   12.41112236057356    4.31377968842369
C          40.03123123158282   12.29918690651382    5.60877421865777
S          38.44518669832740   12.96710449150524    5.78340453638351
C          33.64591179405704   16.44026434009222    0.44939236312112
C          31.59242518659111   17.15217033294319    1.30267210803907
S          32.33697401277526   16.36557963689661    2.65086751362421
C          39.30505742315945   17.64326956356853    0.73642718937285
S          41.00358645242255   17.39740953248526    1.02100045558965
C          41.41344063566253   18.74614075242809   -0.00271675301349
C          40.27880831307508   19.33068374267471   -0.51772958834348
C          39.09740076718445   18.71206707963483   -0.10525778554873
C          42.77775645359669   19.12299344533028   -0.22637447180269
C          43.84881528055712   18.44031039914145    0.33206218877196
C          45.17623180877503   18.79878498420998    0.11184538474694
C          45.54882403333567   19.87130652170366   -0.68461166074489
C          44.48168801896689   20.59470731565264   -1.26682204970508
C          43.12039930200067   20.22683475279731   -1.04255304958020
N          44.47463638786120   21.66679654211900   -2.07362601237231
N          43.21116493472753   21.89649449566446   -2.29670267582267
N          42.35751120314973   21.09394888117023   -1.72450204196069
C          46.91967056651037   20.23278162367924   -0.91176454917538
C          42.77742564004701   23.01020680296888   -3.09099994638441
C          42.56821399776329   24.24039655598872   -2.21286443138289
C          47.41024549565818   21.25999111142994   -1.67698902466725
C          48.81504902168935   21.32571125591534   -1.68247082877554
C          49.38969678892823   20.35390369087341   -0.92499950401647
S          48.22543839981656   19.33288038862403   -0.18581465861998
C          40.72603463434253   11.65079770453433    6.75470192891712
C          30.26001330663778   17.80372796870970    1.43012018477106
C          30.38541030068573   19.19453752564158    2.05665318911686
C          40.31062922387305   10.18302166947071    6.88261032754625
C          32.42107819268215   17.10198591857471    0.22015958236468
Cl         32.01341274760738   17.78024383406404   -1.30924158518020
Cl         41.97480468279542   11.84015657073749    3.76198442725647
H          -4.06488155882455    6.28175166970104    7.09690233395793
H          -4.12228448532541    7.16420895953685    9.53833477697135
H           2.97767108077874    7.41884460212539    6.44240006893473
H           3.00129048610232    6.42551336692796    8.59396257957887
H          -1.76402885603913    6.60469227470036    2.98477514155642
H           4.98360670650810    6.10208006188206    0.90620052599705
H           2.56670232562487    5.93566390580640    1.88369622409058
H           7.56410656652947    7.14016171204277    4.71122359334467
H           9.94656770179095    7.45963319484470    4.38651518015265
H           7.12197318906239    5.86178982418706   -2.24554680051764
H           8.87464782438629    6.13388068845650   -2.48831096083614
H           6.74657261600163    8.32806032395986   -2.27586911191520
H           7.51755428434722    7.80031505760221   -3.77675086444619
H           8.47743294758779    8.59544911033781   -2.52318605040649
H          11.51655451204052    7.61165229433794   -0.05281248499703
H          14.07784448412636    8.01635259782239    0.26414734050049
H           2.65340409345212   11.11310970470829   11.22845822040723
H           3.95210826882785   10.03060144240322   11.76051155714921
H          -5.12669085031367    2.45798413739793    3.95038962897128
H          -5.00992199135251    2.98625353567935    2.26135915545524
H          -6.67342321933058    4.35651768962186    4.43387606805022
H          -7.30936610617155    3.33294878920154    3.14127241141808
H          -6.55549165563611    4.88229022889624    2.75145724995803
H           1.03425437113144    9.88635803843487   12.67601409877591
H           2.37630648473027   10.53778295813648   13.62509753771555
H           2.33008461693017    8.81802375989302   13.22276511660872
H          14.81325102420865    7.51882754097909    4.98056646523112
H          21.68296796406715    9.14018118364146    3.75747582771923
H          18.07588375499499   10.43608931439704    0.99092707404403
H          18.40311711969060    6.13509714666391    7.71297881131917
H          25.14071988254133    8.26840962800456    8.60436695093438
H          22.58773800135038    7.81696325703701    8.28416863841862
H          26.26215305989241   10.62805325733617    4.68864230060754
H          28.57014527237422   11.33117878395796    4.43437524704229
H          30.05333044795439    7.27437255339220   10.05971241704093
H          28.33046524989581    6.85434690405749   10.30453538753353
H          29.67682649636365    9.45117811583966   11.21721550725261
H          29.24665022320522    8.10232992851008   12.27642517065996
H          27.97726428796947    9.03134212615094   11.47002776121716
H          31.70725167454258    9.61558655047929    7.50047305892267
H          33.93653213943696   10.72733161162917    6.71118469718519
H          22.99975338253087    8.92147085826516   -0.68301161624069
H          22.07486118253140    9.93329964467639   -1.80868045425323
H          14.09763268996556    8.53150609816502    9.93338156798855
H          14.76706642842181    7.15712971514173   10.83178508096648
H          12.85403134809380    6.95625325902201    8.45009972276173
H          12.41150410697737    6.72233622684988   10.14505646785670
H          13.50948271104042    5.58697387353640    9.35371534906277
H          21.71665150862350    6.91675468449955   -1.43746579591580
H          22.53878862782919    7.69560883838850   -2.79450277465995
H          20.80238840512775    7.92542459736844   -2.56298225848190
H          32.58642439668293   13.89296886607987    3.36111155747556
H          39.51650406756532   15.50284102666296    2.56415028407866
H          39.68721757080731   13.17368748849970    2.40330720375896
H          34.38543290963071   16.29605346670371   -0.31589627838333
H          40.32585090631900   20.18019480946341   -1.17333640987202
H          38.11242515288827   19.02561704661410   -0.40405988268046
H          43.64201790428609   17.58958310312255    0.96556260913284
H          45.95285206957821   18.21306631971996    0.58230867142330
H          41.84277915469477   22.72431267250205   -3.57734584651434
H          43.54825523605057   23.20044824192135   -3.84013876447320
H          41.81233570944085   24.03753039383419   -1.45806519059786
H          42.24066859489038   25.07815588992737   -2.82171069840242
H          43.49738130152669   24.50887964711254   -1.71603466654893
H          46.76636366245365   21.93391049362139   -2.21059798629619
H          49.37689564240823   22.06411111999011   -2.22650732474655
H          50.43155332733202   20.16996075254604   -0.75202619453818
H          40.47925896016033   12.17981605808322    7.67703959064302
H          41.80439552326037   11.71288978851550    6.59437128269814
H          29.60925103896872   17.18457859178111    2.05106432932061
H          29.81574688942302   17.88847237969234    0.43633019075458
H          30.82274483464722   19.12253558910825    3.04995334216505
H          29.40587060454606   19.65817648839739    2.13906252017425
H          31.02075893228123   19.82852786024836    1.44287525945931
H          39.23712481801586   10.10809239643998    7.04055169784915
H          40.82162111299287    9.72013114779814    7.72282356061316
H          40.56649740684315    9.63929748305007    5.97642623066651
