209
 SCF done       -388.400418207261          0.000628544676
C           0.46552003549387    0.76997210130628   -7.54587446002213
C           0.61091056175849    0.68126008521886   -8.89918638199649
S           0.68788715815304   -0.93762688777915   -9.46261991947179
C           0.52474639200532   -1.54049169130012   -7.83625106385138
C           0.41824880779401   -0.50338634348974   -6.94220691605222
C           0.52497915270210   -2.95627601882059   -7.60092205945676
C           0.41142150189363   -3.56987720406909   -6.36150935089717
C           0.43204442110466   -4.96024802585959   -6.17849528294189
C           0.57577780342890   -5.88427146088346   -7.20581883778519
C           0.68681542333691   -5.28878146704837   -8.48814585562566
C           0.65601477686448   -3.87557864881523   -8.66868756123856
F           0.27518560266506   -2.82910247321589   -5.24333740843982
F           0.31030710280396   -5.39660177611117   -4.90827817049260
N           0.81985442453006   -5.83590409275451   -9.70529436662764
N           0.85855686232853   -4.81790928489931  -10.52012714748511
N           0.76908904480740   -3.63638343789720   -9.98004566381991
C           1.02146859546126   -4.98695791837832  -11.93578050152357
C           2.42132861426781   -4.55999707952517  -12.36389062686616
C           0.61801628656468   -7.30178568205233   -7.01881022326904
C           0.83532755092633   -8.24764738706012   -7.99787013844410
C           0.83761373467125   -9.56709634610400   -7.53604605729922
C           0.60798943766910   -9.63988819475871   -6.16650147609805
S           0.40158393488336   -8.05692070628696   -5.47057370422369
C           0.52252895256713  -10.77186274935739   -5.31354050795599
S           0.82039487657688  -12.39408017339148   -5.85373765746251
C           0.50994571257069  -13.04232795563108   -4.26725275664395
C           0.19528431104271  -12.02586216959122   -3.38542819371399
C           0.20740456944721  -10.76333647437628   -3.96583537200252
C           0.59032462561232  -14.44555312695084   -3.99965408476755
C           1.02468822722092  -15.38904910815159   -4.92557773324472
C           1.12266013759557  -16.75389666303440   -4.68888458975384
C           0.77157916683691  -17.32516072681719   -3.47557429495178
C           0.30627158597999  -16.42114588676120   -2.48169166085065
C           0.22646255907933  -15.00326544668527   -2.74032790926197
F           1.39319542742530  -14.97609202518895   -6.15978049581153
N          -0.08883814315549  -16.72210858794059   -1.24767772021739
S          -0.51770994759708  -15.37217354523516   -0.48653029512007
N          -0.22494371767496  -14.33713817430126   -1.68076156924790
C           0.87315113196105  -18.73278445255607   -3.24521378330127
C           0.47455529884734  -19.46714427835494   -2.14883301682176
C           0.72545245024402  -20.83129107919238   -2.27324709085944
C           1.33773690302160  -21.18377111272719   -3.46104424275231
S           1.58457606058462  -19.77399749859267   -4.44755726710593
C           0.41332247586771    2.05192155193721   -6.77548087726182
C           1.76772093056872    2.34938690094926   -6.13019259833541
C           1.05644129099661  -10.76835770085359   -8.40142498188100
C           1.23727458680207  -10.44418235788225   -9.87893686498356
C           2.48579770935539  -22.93737964078275   -4.92056075465601
C           1.70853850794491  -22.49776178919082   -3.86023034668731
S           1.14120269069834  -23.84054815139104   -2.89517684142337
C           1.94917590895640  -24.98182426958533   -3.92622423966003
C           2.61293664531315  -24.33182044863398   -4.94248903492484
C           1.84625281662003  -26.38304275729796   -3.65682564627654
C           2.46529678198976  -27.39409489868143   -4.38176986947724
C           2.31280112037783  -28.75634008195657   -4.09564707353050
C           1.52374765793289  -29.26098036237294   -3.06716562310843
C           0.88642454318153  -28.25249672566974   -2.29964385353885
C           1.05401666175083  -26.86728181149289   -2.58846635509033
F           3.26192645199396  -27.09421423038452   -5.42660572837398
F           2.98152878992807  -29.61027221048675   -4.89669484250088
N           0.07286307507485  -28.33438881615639   -1.23677319535536
N          -0.20169177874697  -27.09463787592820   -0.93700508419885
N           0.33993740368797  -26.17991424547552   -1.69087681250976
C          -1.08180948296879  -26.75271133226552    0.14353464769762
C          -2.41495026690496  -26.24773975742014   -0.39817096428524
C           1.34723473758621  -30.65377522948414   -2.80150722803728
C           0.52626042078538  -31.21248081186210   -1.84346663126504
C           0.53152359876540  -32.61002939820821   -1.82391367126078
C           1.38455687341400  -33.14232026349448   -2.78503260290113
S           2.16573703782805  -31.88918458474804   -3.70577349284332
C           1.68085660599344  -34.49336439426416   -3.10447057838230
S           0.87066227304033  -35.85900903521422   -2.39035741901326
C           1.80451720350574  -36.97473928106290   -3.34445050739069
C           2.69243087800320  -36.29738559089894   -4.15941795416617
C           2.61938855301508  -34.91639851818571   -4.02887285440250
C           1.56991302420340  -38.38128636854949   -3.23594185774823
C           2.28255333949196  -39.37361168039192   -3.90251943509221
C           2.00320267932024  -40.73266539144872   -3.82384210144840
C           0.96344365830834  -41.24511096975172   -3.06131547815201
C           0.21012392839672  -40.28810571082242   -2.32781327356164
C           0.52279474236660  -38.88499522051848   -2.41724374587282
F           3.32092513472944  -39.03517490269000   -4.69778335344947
N          -0.81392267965190  -40.51127313911642   -1.50785477095582
S          -1.32965256948224  -39.10944827046244   -0.90969461071055
N          -0.28297632781637  -38.14609678556947   -1.66182077576459
C           0.65905551608052  -42.64153568672189   -3.03850779302845
C          -0.38625994780602  -43.29225985231916   -2.41814893965619
C          -0.40116017742768  -44.66532769598762   -2.65015959526487
C           0.63991820177208  -45.11178540704196   -3.44172101406489
S           1.65139872657143  -43.77840977467438   -3.90978239787466
C           3.12039254932368  -22.07985883015430   -5.96887071852597
C           2.16337844131652  -21.85032834005054   -7.14036653471839
C          -0.27576198387065  -33.45408155458887   -0.88791527560130
C          -1.07906144478274  -32.65481887128583    0.13020574619642
C           1.95789850120325  -47.03976403914631   -4.47552390856189
C           0.85704983701972  -46.44949242552620   -3.87537579734601
S          -0.43999403963284  -47.60138055145057   -3.66336031208403
C           0.49843012335875  -48.86190540279711   -4.40431502170029
C           1.74183762938181  -48.39319558007237   -4.76475793520308
C          -0.07388271083901  -50.16095819845371   -4.58355265351944
C           0.54524810274595  -51.24349068016108   -5.19644689208705
C          -0.07660013014865  -52.48399550966245   -5.38743353430581
C          -1.37760320854496  -52.78056920093707   -4.99499228701625
C          -2.03182864815251  -51.70016634292669   -4.34898271737598
C          -1.39242469432636  -50.44235247564741   -4.15292002321018
F           1.80774405472940  -51.13607512687829   -5.65541341627104
F           0.65863045749366  -53.42996030316248   -6.00619939461351
N          -3.26138788979028  -51.59934442694405   -3.82318265725693
N          -3.32155738586330  -50.38178392274570   -3.35891884344298
N          -2.25904743922626  -49.64464608757744   -3.51987282484175
C          -4.50681242892904  -49.86334718278515   -2.73830249630374
C          -5.23379353401820  -48.91927027511108   -3.69047487999575
C          -2.01986299775642  -54.03684921169402   -5.22181360321407
C          -3.31643238387336  -54.36652258060718   -4.88559818367591
C          -3.69319485498973  -55.66435359807407   -5.24223126713504
C          -2.65927522923977  -56.35401213081832   -5.86687387613527
S          -1.22888657828521  -55.37077018672301   -6.00237634258709
C          -2.61894143637694  -57.67572619572260   -6.38390549742903
S          -3.96960029811685  -58.76527005983445   -6.33544569104656
C          -3.06117224815710  -60.01916293065813   -7.13390816686619
C          -1.77888996960377  -59.58360812292373   -7.40878996101906
C          -1.53320741314085  -58.28121681790487   -6.99245245336187
C          -3.63612508811613  -61.29539952130190   -7.43396157457317
C          -4.94582269730916  -61.64929045973605   -7.13036514242420
C          -5.52926899149807  -62.87871261210315   -7.41823633561317
C          -4.83980944768005  -63.89702427967990   -8.05248335814116
C          -3.48992338651817  -63.60882203115047   -8.39042573804820
C          -2.89997316487843  -62.32736001864635   -8.08493633833924
F          -5.74116970608433  -60.74959241206398   -6.50851589831696
N          -2.62499075317019  -64.41845296765018   -8.99723835106200
S          -1.21983754122030  -63.65858601400483   -9.16847891499006
N          -1.63224926235707  -62.26464962483231   -8.48402686632540
C          -5.45151746513659  -65.16133073598866   -8.35050759890132
C          -4.90526135934909  -66.25842646791303   -8.96873355776474
C          -5.80668279268346  -67.32937172811326   -9.09630331496377
C          -7.03305454893031  -67.05023577767426   -8.57838457586066
S          -7.11519877475909  -65.46931132854932   -7.92120447643557
C           3.24594706570384  -46.36264042527655   -4.82122729895446
C           3.20318602412843  -45.79709286961366   -6.24220861968658
C          -5.04539144779356  -56.25525826105785   -4.99264418634294
C          -6.01687541722529  -55.30843397732825   -4.29953120619680
H           0.67366934431420    1.48714112606093   -9.60406573528029
H           0.30469013186189   -0.63910227308799   -5.88295450372707
H           0.27235024977401   -4.37089872343157  -12.43892652177186
H           0.84576330269572   -6.04161359765016  -12.15331250152665
H           2.58752747654770   -3.52106360411312  -12.09101269539073
H           2.52630116261085   -4.66431805670152  -13.43978207966100
H           3.17242774242987   -5.17711370649582  -11.87688908998571
H           0.98743063623029   -7.95857404769430   -9.01964225524780
H          -0.03233050140304  -12.21579779755974   -2.35342822559117
H          -0.00914363958777   -9.85490394251502   -3.43179148584291
H           1.48391442840491  -17.37665938546949   -5.49334034599327
H           0.01512080717961  -19.00894003500551   -1.29294502471951
H           0.48069147548193  -21.55928645436142   -1.52009886827020
H          -0.34835789920176    1.97453683069168   -5.99673216076803
H           0.13945901736104    2.86993860405095   -7.44431800979162
H           2.05341379007803    1.54275582714219   -5.45911379489451
H           1.72166507508944    3.27479054934028   -5.56105855767664
H           2.53621340701055    2.44856947939803   -6.89373029642228
H           0.20604523692589  -11.44766100529445   -8.28365231317786
H           1.93861006290401  -11.30719649833191   -8.04064915436103
H           0.36169632566392   -9.93296690904863  -10.27192929295800
H           1.37668305084460  -11.36587047229272  -10.43886310306336
H           2.11059915177134   -9.81503712141135  -10.03289960255449
H           3.18304088533471  -24.84260608371818   -5.69618085420089
H          -0.60044182527904  -25.97329894454031    0.73910508409202
H          -1.21485981384352  -27.65366659187809    0.74434709200416
H          -2.24909860707286  -25.38036752475782   -1.03198323270388
H          -3.06501982635749  -25.96534288328636    0.42470981825897
H          -2.90548827503641  -27.02242166992398   -0.98252362501385
H          -0.05547260118881  -30.59358644175927   -1.18787341530377
H           3.36894683577892  -36.78535509010042   -4.83520402383017
H           3.23001490974928  -34.22989746761976   -4.58860377408031
H           2.62531882452291  -41.40183606754814   -4.39923171372046
H          -1.11095778735401  -42.76755484890609   -1.82367755595101
H          -1.14408765140870  -45.33493678954399   -2.25424113314238
H           4.01746743012981  -22.58372969838599   -6.33402769164887
H           3.41868186204216  -21.11909088956357   -5.54631882292723
H           1.88500401884890  -22.80071199242439   -7.59005984369246
H           2.63844029059799  -21.23208645273006   -7.89762226914561
H           1.25910388398431  -21.35012289771401   -6.80284928542052
H           0.39776505823334  -34.13770825494679   -0.36165100279353
H          -0.95569812834227  -34.07882817191791   -1.47610075967035
H          -0.42266831870272  -32.04183820030980    0.74322787123333
H          -1.62173434448508  -33.33489295244024    0.78262884892929
H          -1.79960724269547  -32.00938230647301   -0.36616809250202
H           2.49076656654675  -49.00605955410869   -5.23115467017291
H          -4.20683487184936  -49.32730947820311   -1.83498140042495
H          -5.13291677840332  -50.71785010475974   -2.47708520022574
H          -4.57741261661796  -48.09829880616429   -3.96768397242636
H          -6.11876193777056  -48.51634970466599   -3.20678451295952
H          -5.53660053420221  -49.44788168275790   -4.59107500228403
H          -3.95474631791023  -53.65850989103600   -4.39348502064639
H          -1.05685790141732  -60.20845784304579   -7.89959719165937
H          -0.59232177355258  -57.77660705078377   -7.12436842088607
H          -6.55929692943192  -63.02233082477293   -7.12875081930556
H          -3.88847511230566  -66.27678536209935   -9.31350210101673
H          -5.55586107579573  -68.26941879368724   -9.55425390066216
H          -7.90086545146056  -67.67854420860046   -8.54113018194924
H           4.05297446231297  -47.09499601774857   -4.75290610503098
H           3.45528042933581  -45.55892379019883   -4.11360162015021
H           3.02453129148230  -46.59485354332105   -6.95938107804385
H           4.14783525353819  -45.31662665889760   -6.48313573031973
H           2.40735396283672  -45.06257231974713   -6.33740315993064
H          -4.92919478239580  -57.15987567760587   -4.38712194319958
H          -5.47299922202930  -56.57309670837176   -5.94908105737393
H          -5.63515734850989  -55.00679177552379   -3.32711480822029
H          -6.97093267834116  -55.80905000354105   -4.15287022974675
H          -6.18580540199322  -54.41931194200384   -4.90228466773803
