227
 SCF done       -408.944555024008          0.000492523540
C          -8.72154588274796   -1.19513833020737   -3.44340137887213
C          -8.88124231335957    0.18866951657450   -3.70757185829835
C          -9.94032813697424    1.05891619407892   -3.49736664367684
C          -9.65424848258949    2.37023519160792   -3.84371924784942
C          -8.37288426924629    2.54867637314743   -4.34289736684535
S          -7.50699289350213    1.04699314243573   -4.36134658548923
C          -7.82273190873246    3.79140235334398   -4.75921660414166
S          -8.77215741052167    5.22861759729408   -4.50517874598435
C          -7.53531072656687    6.23432234387739   -5.19853590539266
C          -6.46069805130845    5.46462404567569   -5.59449392441290
C          -6.60095055226837    4.09562601368479   -5.34618897592258
C          -7.68205882898414    7.65419484135059   -5.29494035396134
C          -6.28914391212108   -5.22046514222483   -2.62988737702193
S          -4.73026788117614   -5.97820482393751   -2.41618472193827
C          -5.45166225880007   -7.46182440075805   -1.87985540091346
C          -6.82966277071905   -7.35151682802995   -1.88271042052754
C          -7.29671474207705   -6.10879587313052   -2.29097325376246
C          -7.51652349148347   -1.88819432766024   -3.49218866557354
C          -7.73299448639699   -3.23027539731306   -3.07977278797689
C          -9.13765793193807   -3.37525698888644   -2.80535047472074
N          -9.68400535718517   -2.09580906315960   -3.03718350754465
C          -6.11481417345714   -1.71744799679982   -3.74462878615408
N          -5.54746572469338   -2.97042859333185   -3.44592698342887
C          -6.50135483615387   -3.88310184283277   -3.04670457061616
C         -11.11053244491368   -1.90923776404314   -2.94055375937764
C          -4.13938792390788   -3.18667959781878   -3.66606492550576
O          -5.46328649459103   -0.75997278983764   -4.12599995482154
O          -9.81525410142824   -4.32373769707955   -2.45135738629983
C         -11.76174056868660   -1.73875874679090   -4.31031935402839
C          -3.87153698241834   -3.92079244107054   -4.97724222825899
C          -4.69804512787215   -8.61091827924005   -1.50222601167839
C          -3.34111409389108   -8.79580869620095   -1.32900515669939
C          -3.03305369277086  -10.11641173364208   -0.93043938480397
C          -4.12204174712955  -10.91588842776756   -0.80043476782420
S          -5.57751539435275  -10.08519865079731   -1.15886122201073
C          -2.27544808598798   -7.76946167553291   -1.54578999992451
C          -1.83098344934242   -7.73435449140762   -3.00959039784893
C          -5.55309123844277    3.10335767956262   -5.73675564906431
C          -5.88727651940423    2.45874626754505   -7.08346926788949
C          -8.73937064702719    8.35450692490983   -4.72642787241980
C          -8.87712675978783    9.74398809482379   -4.78340716088590
C          -7.98579771082662   10.58804900232072   -5.43506303961791
C          -6.89745182214370    9.91177671182145   -6.05697303457728
C          -6.74320280435312    8.47859082020015   -5.97925825834370
N          -5.91219203762911   10.47523210098322   -6.74971782165226
S          -4.89807397907889    9.33504498921946   -7.25541872334426
N          -5.65405687744653    8.06628673591836   -6.62094751381265
F          -9.70154697802334    7.68959777145216   -4.05890952810792
F          -9.95295580613582   10.25937876632337   -4.15858186924415
C         -10.29277486925370   22.23056532010264   -5.81666953216650
C         -10.69271381072918   23.58578380773724   -5.93186128564654
C         -10.54760133398822   24.53261911858733   -6.93558434750100
C         -11.17434785752185   25.73744237812620   -6.65344521011853
C         -11.80995243407587   25.76018357164950   -5.42080371370271
S         -11.62296425334631   24.24228524443881   -4.60738887058519
C         -12.55915047875006   26.84191657791744   -4.88444351654340
S         -12.82716373924999   28.24577924526292   -5.88136933934110
C         -13.78005136764063   29.00934101293068   -4.64283950877539
C         -13.85570754206789   28.19609433651472   -3.53065166430219
C         -13.18512446305535   26.97648281243321   -3.65069484369268
C         -14.40399742440965   30.28322836681691   -4.82674517208856
C         -10.42318728046772   17.79127841006994   -4.08078591815371
S          -9.25325340880494   17.14837237560027   -5.20963049640992
C          -9.50946356365892   15.53332366238099   -4.63177760673246
C         -10.47021430698445   15.51725887275382   -3.63170612987139
C         -10.97194269796251   16.77010848012510   -3.31919905775721
C         -10.70823266377035   21.36286429413055   -4.81010028913064
C         -10.17680140223944   20.07323651916802   -5.06521625157113
C          -9.37469235894548   20.15575118053994   -6.25329223450046
N          -9.49407510191467   21.49850605304029   -6.67142348115956
C         -11.53499922597531   21.27459702766936   -3.64091739048648
N         -11.48006697283204   19.91837708252406   -3.26542748540423
C         -10.67161111251276   19.18600295760482   -4.11359257548914
C          -8.73941842974001   21.96014370606390   -7.80966903909022
C         -12.13715910980470   19.49869684847563   -2.05248411402387
O         -12.18149083807769   22.11001211602977   -3.03144098280534
O          -8.70798495813331   19.32738941716703   -6.84740877425125
C          -7.56011553242381   22.83768771187512   -7.39855249880446
C         -11.14320924910409   19.22119406810447   -0.92781293892444
C          -8.83191275885527   14.38493939454399   -5.12353739423631
C          -7.76288893192156   14.25894045176295   -6.00103105359623
C          -7.38098657004348   12.92520256895525   -6.18115247017646
C          -8.13336902012921   12.01107169435884   -5.47288446881998
S          -9.35751030431627   12.82728371606842   -4.54786362990362
C          -7.09139399316539   15.38479079998199   -6.71856563309982
C          -7.83989908464075   15.73842133377331   -8.00521970018101
C         -13.13838569968294   25.99052320855740   -2.52782535045505
C         -11.83049144368668   26.11538799238011   -1.74390634700494
C         -14.37454947972386   30.99271999801347   -6.02174664609311
C         -15.04066031589070   32.20472143488232   -6.22705056175217
C         -15.80095618377722   32.84772236400035   -5.25703929390808
C         -15.82259282724518   32.17874060797243   -3.99927207750305
C         -15.14378638601303   30.92309900385311   -3.79039681228712
N         -16.44564187012540   32.58900282010391   -2.89831393362229
S         -16.20736264584674   31.52117232430455   -1.72128861193201
N         -15.30370321445428   30.48009660247756   -2.54671877387201
F         -13.68952013520387   30.50108069492373   -7.07169294575059
F         -14.92793904052435   32.74847084174189   -7.45387316288417
C         -22.56447808273772   42.21780109125515   -7.62202608384577
C         -23.42877964129389   43.31069103688231   -7.88362380153240
C         -24.26335887012271   44.06448477207125   -7.07159345326099
C         -24.93766987830064   45.06724063537076   -7.75162659409262
C         -24.64476557571386   45.11722789302821   -9.10577367808430
S         -23.50146110613287   43.88653521042436   -9.53196709188127
C         -25.19528243047357   46.04108090138127  -10.03566986415540
S         -26.37233352824925   47.18615798825985   -9.45713269882507
C         -26.53606436720559   47.89645325932707  -11.03547709064212
C         -25.70782954407364   47.25827424982324  -11.93422708776786
C         -24.94836788145745   46.21687558812886  -11.39120455685549
C         -27.42613855325312   48.99044277478563  -11.29388955467829
C         -19.31953146317511   38.86456084161495   -8.60572175351492
S         -19.28690902236120   38.26342780106918   -6.96463723845119
C         -18.14923665075024   37.02594143547910   -7.38482535550725
C         -17.81811993964142   37.10028796924281   -8.72981571843456
C         -18.46658327770268   38.12036369076642   -9.40859302255767
C         -21.73393857576027   41.61019940464722   -8.56015050545738
C         -21.01706853113616   40.56187877072737   -7.93025676448788
C         -21.42168745514634   40.51845368819554   -6.55433480890994
N         -22.36335467580035   41.55955838303416   -6.42563393916886
C         -21.32159582123321   41.66059008009752   -9.93412631947700
N         -20.36862413387262   40.62964028319844  -10.05876695076273
C         -20.18314658953106   39.95674424160311   -8.86810500198787
C         -23.02720833848348   41.75795727662791   -5.16142166199706
C         -19.78456320888352   40.35910431229515  -11.34856213545917
O         -21.64439058367156   42.38649968263859  -10.85844268535685
O         -21.09047845723012   39.80076944548217   -5.62620452029361
C         -24.44113409864917   41.18153838622157   -5.16171249768828
C         -20.47475931603944   39.19169339778777  -12.05085622375726
C         -17.66695744903529   36.05754838828302   -6.46425832702431
C         -17.93108634433097   35.89001335725251   -5.11010227584029
C         -17.28584878625255   34.76857128253238   -4.58224646210879
C         -16.52876654052474   34.05706325134706   -5.49035327130943
S         -16.60216613744643   34.81107298788769   -7.05543969064231
C         -18.75828731816766   36.79898814786380   -4.25944263678552
C         -17.95021223115226   38.02074042929384   -3.81776474018638
C         -24.02828666641209   45.38903610035536  -12.22913417999142
C         -24.73091791119639   44.12336955744089  -12.72437392943987
C         -28.22402623150086   49.57136823124937  -10.31835779582725
C         -29.09815901706668   50.64660067704552  -10.57057343557640
C         -29.23590518768107   51.21347486859371  -11.80664781854212
C         -28.45463157966671   50.66838453902326  -12.83581091844001
C         -27.55522073471619   49.56682957157989  -12.59260509927375
N         -28.43185531898499   51.06406605329596  -14.10786765383822
S         -27.39080506780300   50.14969126604896  -14.91586438322061
N         -26.91504760730788   49.20709046304380  -13.70189165845958
F         -28.18487124737273   49.10781228283977   -9.05476637112759
F         -29.81622796607189   51.11869826994047   -9.53951172444674
H         -10.88915802061932    0.76846404296343   -3.08909727819657
H         -10.35294466345685    3.18180671188789   -3.73957634783647
H          -5.59009565931640    5.89926138232531   -6.04984396855924
H          -7.47037726341616   -8.16295729521702   -1.58625062402000
H          -8.33766967168483   -5.84325275147321   -2.33859888260003
H         -11.33470094305457   -1.06501692837088   -2.28336776782933
H         -11.48796356686993   -2.82139584871462   -2.46742102577618
H          -3.70727142846584   -3.72810178108095   -2.82077724706474
H          -3.69380814809735   -2.18808066238767   -3.71080125433762
H         -11.36291803330071   -0.87062437300300   -4.82995110548998
H         -12.83517949473642   -1.61580620878001   -4.19452253033095
H         -11.57665128101392   -2.62091917220447   -4.91845043223260
H          -4.34895585684863   -4.89758065646383   -4.98229295500302
H          -2.80201509171685   -4.05602044125760   -5.11036463720215
H          -4.25822622589942   -3.33984613162955   -5.81108140501361
H          -2.02742582277989  -10.45081825680117   -0.74557089234544
H          -4.16213890658059  -11.94752730394498   -0.51273811816688
H          -1.41812244373015   -8.01935575666160   -0.91734265416054
H          -2.63470539145868   -6.78195180450621   -1.25000595661520
H          -1.43800444427935   -8.70386828680993   -3.30716346911880
H          -1.05502553755252   -6.98595338823730   -3.14824786143754
H          -2.66803826884316   -7.48836287512086   -3.65795397064979
H          -5.45859840213234    2.32394831254560   -4.97894318214849
H          -4.59520389156966    3.62074600486329   -5.81472985687249
H          -6.84219971988568    1.94193258166566   -7.03302128401659
H          -5.12054660504282    1.73648779659389   -7.34932469810845
H          -5.94351140186776    3.21629231831457   -7.86242915900833
H         -10.02134523282374   24.36134873530703   -7.85531207987314
H         -11.17704864927605   26.58135131589209   -7.32101260108964
H         -14.39974880798312   28.48832054835477   -2.65193091573367
H         -10.78444708752716   14.61001792173394   -3.14626879688467
H         -11.72356913333327   16.91296585043694   -2.56731461016365
H          -9.39953452294514   22.48150133020377   -8.50796852519226
H          -8.36829934080690   21.05309825637944   -8.29721490403153
H         -12.77224904539469   18.63144499702626   -2.25008469551958
H         -12.78123435411288   20.33794083826126   -1.77082530011688
H          -7.89707332711726   23.71978057128231   -6.85900531149311
H          -7.01122571132502   23.15457666124252   -8.28125640363101
H          -6.88856960568121   22.27443139482006   -6.75512149752979
H         -10.44636657328972   18.43327787100489   -1.20398002938668
H         -11.67696194157606   18.91907116357616   -0.03077788289953
H         -10.57600978723656   20.12243799868707   -0.70791543934687
H          -6.56868746459440   12.62068545891309   -6.81489673956981
H          -6.07186753624850   15.08285170371844   -6.96602114736299
H          -7.04313016812006   16.26887023115972   -6.08086056573842
H          -7.87375325814082   14.87989210613946   -8.67274741544788
H          -7.34079090784475   16.56069357554563   -8.50960268224859
H          -8.85709165186773   16.04859340813718   -7.78207813717859
H         -13.23774060468320   24.97016907811632   -2.90102662485412
H         -13.97692843130116   26.18939751682024   -1.85797262751074
H         -10.97660328412004   25.93678953909676   -2.39223582918628
H         -11.80944113515381   25.38382874599716   -0.94117686278851
H         -11.73893676492736   27.11167307587830   -1.31622874784565
H         -24.38723308096171   43.90713721738958   -6.01759506365106
H         -25.62515995217729   45.74908704173297   -7.28235818152735
H         -25.66000932093543   47.55032964278605  -12.96696113380183
H         -17.12490591988651   36.42008970212126   -9.19301093350572
H         -18.31485186049612   38.29468529491676  -10.45634177699082
H         -23.02498241844650   42.81986691028293   -4.90407173590036
H         -22.41859870471193   41.22201071843260   -4.42619825048714
H         -18.71147388997606   40.18701566024720  -11.23798262006181
H         -19.93260318692533   41.27080547081519  -11.93584580632308
H         -25.05081355735988   41.63548267807423   -5.93958549121702
H         -24.91177975782841   41.35705772664929   -4.19808263427494
H         -24.39947231517264   40.10947993357206   -5.33798406110475
H         -20.43066144189219   38.28841948025689  -11.44653098961486
H         -19.99704032620429   38.99969622738111  -13.00785656022680
H         -21.51922773615895   39.43736842244883  -12.22648315427415
H         -17.36861553574652   34.46676236783471   -3.55480298364910
H         -19.08497073337447   36.24674620395307   -3.37645680554520
H         -19.64539063464154   37.13441415978327   -4.79852917110451
H         -17.08977416687542   37.71343650684978   -3.22700072840461
H         -18.57364551430076   38.67880514357446   -3.21941868438285
H         -17.59732153705871   38.57847591821990   -4.68121274196247
H         -23.13985563597108   45.10490557798359  -11.66362011606408
H         -23.71103936417081   45.98263461380353  -13.08850613102771
H         -25.07609331899240   43.52534562171417  -11.88511638901846
H         -24.03982408708580   43.52252341997926  -13.30833599882071
H         -25.58749503053255   44.38186982374348  -13.34339817827355
H         -29.90745352020976   52.03477185925208  -11.98472574866820
