422
 SCF done       -664.246459948300          0.000556260885
C           5.66153461849622    0.02440883529147   -2.74625294396086
C           5.55853511590836   -0.53239263083530   -3.99647004278002
C           4.43170498578522   -1.35328987835748   -4.16870881597454
S           4.36258044623405   -0.49972872429260   -1.71922270592516
C           8.99751680123955   10.36607282725847   -0.78384099166377
C           9.73257587727855   10.63761098733251    0.37633965528769
C           9.80036830309512   12.00189802385206    0.66128146864123
C           9.11379416593543   12.75260053630995   -0.27258473016057
S           8.39142071920268   11.81191574274139   -1.53762827043573
C          10.42603397822473   12.89306248807607    1.70087766714984
C           9.89387963169365   14.24995340526755    1.26884701320311
C           9.13090940777095   14.13874751035775    0.08401024257044
C          10.05898776536493   15.46514448980370    1.89243346811531
C           9.45405373028878   16.57008899504720    1.30221437746566
C           8.69972360085558   16.46094263392866    0.11236108735206
C           8.52533342392034   15.24406506341651   -0.50552880538249
C           9.41877491859639   17.94805795870086    1.69268875715364
C           8.65577925851867   18.68506648050740    0.81195055199859
C           8.13356653555726   17.81141116466516   -0.29797282287480
S          10.09549970052930   18.88043507430471    2.98820835022627
C           9.34021166964416   20.30272275465615    2.33541955749519
C           8.61127458991385   20.03608780659246    1.17387421864772
C           3.64388039382513   -1.39650733990084   -3.03054988389925
C           8.69354792253156   18.34996318994760   -1.60078512710295
C           6.62125257842891   17.70874783144037   -0.33014776755061
C           5.97580511589304   17.28678930135648   -1.48574898483047
C           4.60074250948295   17.15447241102686   -1.51286934229142
C           3.83377900952603   17.43724071381838   -0.39003151016009
C           4.48453441708760   17.84495795630716    0.76608801929059
C           5.86052943540045   17.97625808274289    0.79910817873423
C           9.83200467080537   17.81713639825430   -2.18708332473118
C          10.34893742003756   18.37408341498828   -3.34320576634247
C           9.75333931708000   19.48017520839310   -3.93281830152891
C           8.61859939078142   20.01516082424922   -3.33585326283290
C           8.09571410486615   19.46106218724869   -2.18418063729522
C           2.34291326570154   17.25664681093877   -0.41146107225770
C           1.97129883056212   15.82647851255677   -0.01460086771294
C          10.29294375400026   20.05715965247098   -5.20998715847076
C           9.62412546183398   19.39947580065080   -6.41871491193239
C          11.93198880908586   12.75758443130890    1.55046713805704
C           9.98247566143673   12.59463804993040    3.11768913216429
C          10.74499423000317   13.03692475997778    4.19159664805219
C          10.34075406848951   12.78808041113065    5.48898321867913
C           9.16853207712821   12.09040135761971    5.74979887832190
C           8.40290562760751   11.66308712713662    4.67390923271267
C           8.80005143740319   11.91528580701492    3.37370864622341
C          12.69174138218285   13.68771378719175    0.85693817474276
C          14.05390523655603   13.50172266152323    0.70203953716225
C          14.68716053028269   12.38169039340158    1.22175806974090
C          13.91892791268085   11.44766737425821    1.90575105657122
C          12.55954404119687   11.62963183719529    2.06651768485322
C          16.17294753988867   12.20775311486716    1.09013281367678
C          16.89374156789279   12.85287030160172    2.27564643674844
C           8.71539612386113   11.85000791356489    7.16131387750417
C           7.83760500530447   13.00588215755215    7.64528439845807
C           4.11515061695385   -2.10374800010025   -5.42785015491268
C           5.33395603828314   -2.34839200847525   -6.31105852736643
C           9.34707953652700    6.79015716345494   -0.03130866337677
C           9.60773787569469    5.90095639161411    0.99790309358638
C           9.21816487089695    4.59201249035534    0.67911164796211
C           8.69896841526772    4.44537698887042   -0.58440052485252
S           8.69650231457982    5.96592945583544   -1.42380279056568
C           8.10578323852815    3.26773265276142   -1.14793190675895
C          10.15931486407487    6.24981902471002    2.34505573596394
C           9.04990227251650    6.71913669440111    3.28808133028536
S          10.23678034099784    9.17671427107625    1.14299192684668
C           9.43319994014344    8.21172543336785   -0.08894950368798
C           8.84281963357923    9.00405656637593   -1.04916691029354
S           7.87111982358057   21.47393227206634    0.56805842885667
C           8.55035107767742   22.39283198826572    1.87140453260806
C           9.30197103580614   21.65447728729275    2.72772779435436
C           7.88899568913193    3.07139100493729   -2.50486996941813
C           7.17559059815026    1.98664244224917   -3.03527414697185
C           6.57398841244533    1.01510220147253   -2.24950534437486
C           6.82506426478381    1.16060201784009   -0.86657142250523
C           7.58888418273369    2.23583618759318   -0.32717605047753
F           8.35428057980931    3.97898678013289   -3.38671582783793
F           7.02270454344975    1.95444336753213   -4.37432539431226
N           6.43426077524252    0.39216030964708    0.15691769286166
N           6.93300075007731    0.97753683176901    1.20826238039891
N           7.61969944302851    2.06818669771393    1.00274450243161
C           6.70194480357087    0.46555340595404    2.52875198930426
C           5.25519514318908    0.71198190683459    2.94365032944453
C         -18.62374944391723    3.78726729264673   -6.40456152167701
C         -19.31936634252024    4.90285413269559   -5.99538225581513
C         -19.47258345670246    5.88524168998917   -6.98867930853965
S         -18.19753711600679    3.91920208805133   -8.08380824614542
C          -9.90757280065758   -1.88782006378875   -3.68291012763984
C          -9.53311456934620   -1.99216929599974   -2.33650496281468
C          -8.16624341393501   -2.23249330299237   -2.18266544587446
C          -7.52378617369869   -2.30516513251328   -3.40416493738606
S          -8.57070101388236   -2.11212325450150   -4.77024086057023
C          -7.18017886268356   -2.42727999976843   -1.05966180009451
C          -5.87298632265931   -2.49890771335385   -1.83527015477796
C          -6.11134488289829   -2.43813072041420   -3.22699130725551
C          -4.59004067889124   -2.54834223999522   -1.34069007243121
C          -3.54916049322099   -2.52788208141761   -2.26535512879913
C          -3.79032199313060   -2.47130688563422   -3.65788064503935
C          -5.07271947195093   -2.42974733238441   -4.15240748645518
C          -2.12872331933265   -2.49755314772568   -2.08887017780283
C          -1.48978992558726   -2.40481779270381   -3.30971451198609
C          -2.48699307215504   -2.36320251829230   -4.43465501767039
S          -1.04910897260928   -2.46141735944475   -0.73017635586986
C           0.29587756983558   -2.28819586921861   -1.82174375597563
C          -0.10671091156759   -2.30663885798200   -3.16278343216661
C         -18.87661905482472    5.51839187071486   -8.17971545198406
C          -2.51529922463070   -1.02176727602108   -5.14979629058718
C          -2.20023968828426   -3.51881837158969   -5.36873705406240
C          -2.84527925581097   -4.73914930949967   -5.23181845129955
C          -2.51025325255150   -5.80144897952461   -6.05175252729047
C          -1.51904348206037   -5.67586790483792   -7.01527721682784
C          -0.87176396530440   -4.45324376786846   -7.14276063325265
C          -1.20407538574607   -3.38866531877534   -6.32849389998210
C          -2.04433431991197    0.13067247746953   -4.53970462744749
C          -2.18423517851482    1.36581034715829   -5.14892611165604
C          -2.80936835179090    1.48672915230613   -6.38060920276722
C          -3.25325822506621    0.32328309056284   -7.00260738351005
C          -3.11281677384500   -0.91059786176095   -6.39984091538286
C          -1.18903205268856   -6.81827105643912   -7.93219497491221
C          -2.04876598987795   -6.75164445164801   -9.19601860090536
C          -3.07190467957175    2.81370616362136   -7.04294722216795
C          -2.19611668328753    3.96726590867380   -6.56785018207087
C          -7.54993479663286   -3.72071147477256   -0.35628612591639
C          -7.11390675706860   -1.26644352859811   -0.08880207907644
C          -7.50744180562351    0.00927573313255   -0.46704736564613
C          -7.40966638416702    1.06538856772868    0.41998262463519
C          -6.90937790661581    0.87780892172153    1.70106231434082
C          -6.50035480418613   -0.39724303425724    2.06906387453382
C          -6.60029903895871   -1.45664942157251    1.18793158579318
C          -6.86896991195384   -4.90693656882878   -0.58394101329526
C          -7.26474295763965   -6.07207825250823    0.04880242676475
C          -8.35211818145145   -6.08458002935082    0.91062672156224
C          -9.03807094690100   -4.89525098239484    1.12519124754312
C          -8.64576196502665   -3.72880600301631    0.49928179261117
C          -8.74943711278758   -7.34055275442132    1.63173594586469
C          -8.04290456931650   -7.42629620210969    2.98619939802514
C          -6.76280115930598    2.03427495968268    2.64802833363903
C          -5.39490609762835    2.69689316202293    2.47351373949330
C         -20.23874989369561    7.15210076479415   -6.76368794435866
C         -21.71257198563590    6.85301111066324   -6.48599474713305
C         -13.24954146914271   -0.85795704655004   -2.58914598515547
C         -14.00511868026257   -0.43049983003822   -1.50801577689926
C         -15.20955361629307    0.16917142179216   -1.90396285758562
C         -15.40848233526291    0.20310784074761   -3.26532395797941
S         -14.08590566592253   -0.56658064084031   -4.08945442185101
C         -16.42191820460840    0.89792130204461   -3.99897436831946
C         -13.62584075554081   -0.58594715750619   -0.06942663524245
C         -13.90250859542561   -2.00893192495962    0.41923767050532
S         -10.87878730572029   -1.66695685695736   -1.30238389481140
C         -11.91871038888680   -1.35524607069085   -2.68856041877698
C         -11.24440166907539   -1.54377423833739   -3.87633043091295
S           1.24165056391541   -2.10950293773252   -4.21708939261557
C           2.32157952360116   -1.89478275233958   -2.84486688912050
C           1.66120469242253   -2.04539980603354   -1.64664812810008
C         -16.56146644338794    0.80873772194169   -5.37848502750879
C         -17.35328858327081    1.67353961019732   -6.13839288162253
C         -18.08379069001633    2.72913315990559   -5.60549729387276
C         -18.08042853030497    2.75292656552754   -4.18798143008000
C         -17.27744426731672    1.86263640383519   -3.40869439058179
F         -15.85605212780223   -0.11286951440077   -6.06444092391410
F         -17.32482908553288    1.48689934265167   -7.47359936250746
N         -18.71761876253387    3.56248670421936   -3.33255077390688
N         -18.32278398333080    3.16732354586608   -2.15343541123224
N         -17.47103667767162    2.17953130685060   -2.12222493975070
C         -18.76310390710895    3.81896579920278   -0.95329712393757
C         -17.80919078767108    4.95082075872304   -0.58243498504076
C           0.21954713569657    1.96761672604499   -8.45911880139436
C           1.10336849451624    2.37340413531096   -7.48672486681507
C           1.54390284398388    1.33019620234112   -6.65193977469173
S          -0.07521387626652    0.25647930793681   -8.34388901388389
C          -8.27474983737728    6.14558862739916  -14.24427544700789
C          -8.51500941956773    7.48469229543098  -13.91013305092062
C          -9.86921534435593    7.81525214653798  -13.96797395038872
C         -10.63854776142274    6.73673850706841  -14.36091244229426
S          -9.72505686116165    5.30467226723139  -14.70586531345245
C         -10.74975451339278    8.99067851289026  -13.62637962526574
C         -12.12148678890540    8.33144173270405  -13.66065320892799
C         -12.02764624164576    7.01327223198319  -14.16310033142685
C         -13.30195620948102    8.80717193451001  -13.13651200316824
C         -14.38194806052024    7.92796804664413  -13.09791199360408
C         -14.30068050484134    6.63220380573741  -13.66188382146898
C         -13.13070049387215    6.16712467433721  -14.21322420781448
C         -15.60969741785942    7.98159973910726  -12.35809778260449
C         -16.25691855855493    6.76356158298168  -12.42353095737121
C         -15.55860915777601    5.83204314046971  -13.37656734923871
S         -16.26410914583698    9.04280964481719  -11.14550121851764
C         -17.34393969108073    7.77220713985663  -10.62947618579866
C         -17.24205923636760    6.64059027148495  -11.44590515469885
C           0.98572237009541    0.13571774276549   -7.00904513962076
C         -15.19535742813396    4.51074245196934  -12.72408297233017
C         -16.45985074620398    5.64435667427253  -14.58200610156194
C         -16.16489965300232    6.19106440689107  -15.82128009530086
C         -17.03884995427055    6.02825880837483  -16.88215071879898
C         -18.22624585283383    5.32726860621609  -16.72966563072076
C         -18.51790336287202    4.78465353881153  -15.48375709994462
C         -17.64953462635411    4.94223888015947  -14.42251917821862
C         -14.88084078792113    4.46209274722657  -11.37191551690846
C         -14.56321609381229    3.26229088936743  -10.76564348993560
C         -14.52660298026157    2.08188112100533  -11.49564206588903
C         -14.80371917073118    2.14139800849568  -12.85477479785269
C         -15.13280811471799    3.33819348438075  -13.46411636952004
C         -19.15169511689906    5.11375745917035  -17.89298299573806
C         -18.81666757999047    3.80275348434445  -18.60703282781426
C         -14.23997322106238    0.77198404911404  -10.82201731082409
C         -15.54024381791659    0.12538709112468  -10.34019638713571
C         -10.53853722301197   10.02687534763597  -14.71550943006102
C         -10.50097275810072    9.56688906882832  -12.24887089509272
C         -10.00877214615302    8.77226586885738  -11.22310237044546
C          -9.81866059609830    9.29668048124964   -9.95811184959700
C         -10.12427502910685   10.62207262951977   -9.68184718939729
C         -10.63557847876355   11.40806977502687  -10.70622548556842
C         -10.82313787453636   10.88979073723056  -11.97322416393830
C         -11.47596043560387   10.25941955918395  -15.70996242875947
C         -11.21995737367091   11.18321523513609  -16.70810791882704
C         -10.02449087700519   11.88648588484446  -16.74274273154463
C          -9.08595390967562   11.64363135041240  -15.74691472747581
C          -9.33634139982150   10.72480689944261  -14.74768724238991
C          -9.77032260917126   12.92360465055672  -17.79872483736299
C         -10.23668474212205   14.29880670714877  -17.31659601372687
C          -9.96181138601520   11.18028788246119   -8.29692937718609
C         -11.27182220896377   11.05978080168244   -7.51579970724847
C           2.46315265581184    1.52576939011477   -5.48661075353728
C           1.66837449738347    1.71246318373604   -4.19382673392346
C          -4.87043155147580    6.56287063227450  -12.95230725524413
C          -3.92929767162166    7.48032514501462  -12.51528511971211
C          -2.83626362060882    6.86300792381331  -11.89392041455431
C          -2.91582855280074    5.48963343531110  -11.83230219027148
S          -4.36371213026386    4.93031576255344  -12.61331031978178
C          -2.03936999908905    4.60173531855820  -11.13114027525319
C          -4.01785042972894    8.96311346184663  -12.69827918501818
C          -3.80101909132217    9.35698306118731  -14.15984957219704
S          -7.06961852342977    8.24859145080112  -13.35325352770777
C          -6.17744716955876    6.73565170420673  -13.49299862579577
C          -6.96231236227290    5.73043610714676  -14.01221968929576
S         -18.12909306967608    5.31575199809435  -10.79020219328743
C         -18.51114643049690    6.25559048792852   -9.35126589895955
C         -18.07560690731676    7.55716067689414   -9.45319327301971
C          -2.17791625535562    3.22024464264787  -11.11247635677552
C          -1.42150944639686    2.36755773257937  -10.29708681908528
C          -0.45163169014112    2.80713971025733   -9.40714293957062
C          -0.23353545135805    4.20727558864218   -9.45782331937017
C          -0.99725489695009    5.07542481511975  -10.29441049843528
F          -3.11561335688660    2.63509277602637  -11.88535869822833
F          -1.71360738296542    1.05321251701983  -10.37223651676036
N           0.63668940066731    4.97284355826183   -8.78538268081534
N           0.39893024756365    6.18388600565623   -9.20276898475639
N          -0.55103782354478    6.32162651797186  -10.08520758450918
C           1.11483347274455    7.31230596038799   -8.68012462542859
C           0.46869567518738    7.79850148554632   -7.38621887705930
H           6.28091649890299   -0.34583004119171   -4.76854057096999
H          10.62739443149303   15.56658251061307    2.80420838922557
H           7.94187374125092   15.13976832771352   -1.40740342503890
H           6.55240318237156   17.07399969923386   -2.37445403869959
H           4.11467922139266   16.83083516536937   -2.42257247575257
H           3.90785047348899   18.06634944062285    1.65313270747940
H           6.34335622717579   18.29242528989255    1.71236590573187
H          10.31906459151770   16.96206679799121   -1.74164098241413
H          11.23439180000678   17.94372628277346   -3.78960576689808
H           8.14147761506382   20.87992386065781   -3.77451527677418
H           7.21314836510106   19.89113455258588   -1.73294918772889
H           1.95908010714259   17.46322662759174   -1.41268234465474
H           1.87531396323273   17.95598977054071    0.28467722804130
H           2.41725757608086   15.11442030835257   -0.70544870014589
H           0.89162354534296   15.69515068367686   -0.02791538052562
H           2.33665146776661   15.60513229281997    0.98577499675959
H          11.37145694341081   19.89522546623731   -5.26324078675398
H          10.10676625735795   21.13276082188044   -5.23723571396415
H           9.80894567005751   18.32753737386916   -6.41591509939186
H          10.01370455985017   19.81711669092112   -7.34428714224873
H           8.54879160170072   19.56092059047343   -6.38976502469121
H          11.66916128116913   13.56661415780273    4.01008101959077
H          10.94891047343155   13.13535396390776    6.31240458610092
H           7.48456643585226   11.12209734161806    4.85416617841931
H           8.18382761569715   11.57658440299150    2.55356432743218
H          12.22186401094808   14.56441859429885    0.43609583415739
H          14.63188941446804   14.23920092931405    0.16307260781268
H          14.39002379743008   10.56471795452202    2.31376103186480
H          11.97691243917909   10.89285372106267    2.60097830805431
H          16.51929897596983   12.67062363892611    0.16378922076270
H          16.41952280847450   11.14468990832612    1.05433672186596
H          16.66815319663934   13.91601231585587    2.32191382691625
H          17.97015791005373   12.72972113034405    2.18040246818863
H          16.57231419616507   12.39452336029078    3.20834141495785
H           9.58300629398512   11.75822823919540    7.81800153292803
H           8.14654512682677   10.91937582792116    7.21435358298447
H           8.39127975642832   13.94143404971783    7.60918408950531
H           7.51038003016492   12.83434029918467    8.66828349096068
H           6.95969559578030   13.10484027338908    7.01073041106455
H           3.36766706455455   -1.54950177356272   -6.00431827631316
H           3.66397281410456   -3.06290800102575   -5.15900178540140
H           5.71411607151814   -1.41526638740424   -6.71863658762578
H           5.05942491109525   -2.99244079866749   -7.14305058208240
H           6.12658530191238   -2.83386585987260   -5.74614622247864
H           9.30309039476827    3.76409213558301    1.35885388952925
H          10.91959629192035    7.02720126232914    2.25647262950344
H          10.63366679490161    5.36061293197684    2.76503384681749
H           8.56790202342885    7.61183573384703    2.89764382704627
H           9.46141083422406    6.95155816224825    4.26709598111252
H           8.29790453525589    5.94101415336526    3.39869543274334
H           8.29861688681780    8.60460986424016   -1.88547299907662
H           8.34393624694497   23.44357921916110    1.91697327578184
H           9.80185321107918   22.05003656487578    3.59254700159288
H           7.39691118481013    0.97688285720235    3.19635609155468
H           6.91156975925640   -0.60675583160429    2.51861130389115
H           5.04587304683082    1.77849929571024    2.97370185895028
H           5.07586249598115    0.29143689436695    3.92878182339956
H           4.58346447379932    0.24195270823484    2.22986742853524
H         -19.67115942949112    5.01135683530862   -4.98555318909028
H          -4.38850358563246   -2.57764062219414   -0.28064459545645
H          -5.27455175598703   -2.36777597812909   -5.21049685951947
H          -3.61378990936324   -4.86076452557307   -4.48214162497002
H          -3.02463887907808   -6.74509545291753   -5.93576816526853
H          -0.09661235606457   -4.33356881118782   -7.88604743474847
H          -0.69519055345963   -2.44299179548012   -6.44234290426179
H          -1.57531155173484    0.07691841630136   -3.56770090546547
H          -1.80976421237626    2.23889854024254   -4.63805856684237
H          -3.72368845739557    0.38685947851060   -7.97316939647782
H          -3.46866302458426   -1.79582621056167   -6.90622414461536
H          -1.37000355409778   -7.76716508828542   -7.42279777953279
H          -0.13434558067213   -6.77579090877795   -8.21192256910541
H          -3.10407832821523   -6.80550525761966   -8.93789696493386
H          -1.81129237106652   -7.57709080852338   -9.86323770230091
H          -1.87353885048354   -5.81630830313749   -9.72262280929076
H          -4.12262520452338    3.07343591541558   -6.87244230812650
H          -2.95125732845268    2.69223853849904   -8.12184652823870
H          -2.42073688386573    4.23129029432723   -5.53696344361887
H          -2.37890454206102    4.84440274608797   -7.18642896411878
H          -1.14302610575532    3.70665214934320   -6.64320450022249
H          -7.89418999100356    0.18211706154546   -1.46084829616446
H          -7.72952256750736    2.05065211309572    0.11108824524811
H          -6.10210513674742   -0.56419836341487    3.06007216090730
H          -6.28746397441275   -2.44343817959137    1.49782769492024
H          -6.02367960781083   -4.92419036113519   -1.25602170277519
H          -6.71973556184862   -6.98716492426672   -0.13567609055625
H          -9.89196073003844   -4.88336098395163    1.78758588565485
H          -9.18992775804314   -2.81217832640829    0.67727740103683
H          -8.48262894598100   -8.21258266741013    1.03131044313089
H          -9.82999304765346   -7.35089149628130    1.78866006562653
H          -6.96368948058656   -7.42859304787074    2.84988911697235
H          -8.32913458361738   -8.33623094583112    3.50870675639731
H          -8.30719216117428   -6.57182898338780    3.60534887300381
H          -6.86437698764414    1.68484836916213    3.67761485909332
H          -7.54636431041678    2.77071725180121    2.45811472909477
H          -4.60039369968132    1.98057721768552    2.67045032359080
H          -5.28615312416211    3.53461301736829    3.15871866845472
H          -5.27934329262342    3.06206003712015    1.45546377159859
H         -20.16382961582177    7.79030361867136   -7.64388192809318
H         -19.81185364931136    7.68691807434099   -5.91102420638984
H         -22.15472838601410    6.32953837495775   -7.33061104156895
H         -22.26112136920558    7.77835084917401   -6.32655028088552
H         -21.81866275417351    6.22922464549842   -5.60218758070429
H         -15.91810632161884    0.59606740168213   -1.21762583770532
H         -14.20960615207735    0.11982613895103    0.52454822173434
H         -12.56777359999107   -0.35434948903876    0.06995965088627
H         -14.95682757429425   -2.24909509271235    0.30050446327184
H         -13.63871667897287   -2.10434695320099    1.46953899180736
H         -13.31852343014534   -2.72796970134667   -0.14979012093079
H         -11.70047274187703   -1.40436792580038   -4.83947812107438
H           2.14987769317544   -1.95345514481877   -0.69388080479803
H         -18.79127323732575    3.06800954272200   -0.16155017171527
H         -19.76587569841416    4.20772511550229   -1.13910906360374
H         -16.80938470990895    4.55786178296884   -0.41518107259460
H         -18.15115764584744    5.44026501770657    0.32485281725849
H         -17.76842547269489    5.68441093479896   -1.38384942799653
H           1.42216171673545    3.39487547059636   -7.39218445458270
H         -13.37144000001463    9.79051776473113  -12.69611320754134
H         -13.04286586623611    5.15934733821351  -14.59013832184329
H           1.14138207612789   -0.82111383019393   -6.55240678641938
H         -15.24871009855586    6.74532094018188  -15.96305379840276
H         -16.79294532529900    6.45816861420949  -17.84306709468398
H         -19.43846039744185    4.23629066995537  -15.34277259669398
H         -17.88913565416002    4.51218005184609  -13.46050056479782
H         -14.88430702788540    5.36922286244126  -10.78436460132909
H         -14.34155230989893    3.24198874881391   -9.70834272766226
H         -14.76460353412319    1.23764480556774  -13.44658586139485
H         -15.35052501226358    3.35795420604130  -14.52245396834531
H         -19.05893786353864    5.94225282404692  -18.59819784436566
H         -20.18503812875711    5.07778860843247  -17.54160056885818
H         -17.79340715088058    3.82447255587310  -18.97549092943867
H         -19.48643395475288    3.64437168126138  -19.44923493380962
H         -18.91498980844097    2.96387743348714  -17.92165132708496
H         -13.58209437047116    0.93220542138720   -9.96575090243488
H         -13.73692226044617    0.09806492330164  -11.51906204972108
H         -16.05399915427129    0.78091259372816   -9.64219094723991
H         -15.33188245571786   -0.81706912942078   -9.83954374183865
H         -16.20299469175509   -0.06458407327084  -11.18159356257479
H          -9.77327476249581    7.73467556912485  -11.41026493568478
H          -9.42611641000826    8.66456971624515   -9.17413574595219
H         -10.88774011709094   12.44090694748918  -10.51049634102119
H         -11.21676616826127   11.52013413471487  -12.75777816022248
H         -12.41163503519838    9.71984450237387  -15.70618976403361
H         -11.96214817297127   11.35548999274675  -17.47487423579583
H          -8.14610138313640   12.17715153734700  -15.75777254658296
H          -8.59643213238050   10.54657732648094  -13.98035410952055
H         -10.30637772828093   12.66171856292869  -18.71318408046126
H          -8.70343248330663   12.96539243473664  -18.02771029094167
H         -11.30164356809347   14.27998498462130  -17.09557937816607
H         -10.05282252687054   15.05344728578772  -18.07793328194966
H          -9.70496377242905   14.58154978792187  -16.41068142428221
H          -9.67242301504623   12.23192313397393   -8.35304630366899
H          -9.17577011197864   10.63726626025637   -7.76832782360414
H         -12.06466626185370   11.60770546141563   -8.02003038744501
H         -11.15600335556624   11.46083897781355   -6.51128962786969
H         -11.57242389426971   10.01703942323768   -7.44216604770150
H           3.08715864880401    2.40393885838068   -5.66151401719227
H           3.11778874252330    0.66059461692210   -5.37874394347069
H           1.03681399216768    2.59556725805044   -4.25989478730078
H           2.34269392963667    1.82753198317054   -3.34787561371084
H           1.03109683265316    0.84937191283440   -4.01687773621951
H          -2.00701797049381    7.40066049094822  -11.47245055788692
H          -3.25398781977097    9.43604644973933  -12.07844187650329
H          -4.99333367806442    9.32463701027387  -12.36559859419780
H          -2.82536342805057    9.01752084115321  -14.50073782549171
H          -3.85230393879276   10.43733237247216  -14.27013243536183
H          -4.56209623189066    8.90935820588746  -14.79394272799012
H          -6.60196099183671    4.73114915258175  -14.17644966249299
H         -18.17896508040853    8.28660943265822   -8.67132118860376
H           1.09177553650142    8.09458124601525   -9.44055288823270
H           2.14359471024312    6.99647837761749   -8.49626308813763
H          -0.55829029548710    8.10439154405593   -7.57010409975717
H           1.02254841941985    8.64603569477853   -6.99326479468074
H           0.47067773093538    7.00255335531959   -6.64572256194653
