278
 SCF done       -468.871367173474          0.000999996708
C           0.90229087385972    6.46543871004271   -4.23367473632347
C          -0.42731888039786    6.37356414823261   -3.79278497062888
C          -0.72361100062104    6.26220961097603   -2.41218468028064
C           0.25227683084964    6.24848222864387   -1.42922663974577
C           1.58246921038586    6.31011368855162   -1.87537416494885
C           1.88338407733187    6.41413588083242   -3.25509456559882
C          -1.61494566402975    6.35441900108117   -4.58453113900725
C          -2.73902992926650    6.26007093867054   -3.84678665107713
S          -2.44669731349505    6.18094554659396   -2.14135233970405
C           2.75187319999728    6.25743565297415   -1.08300205030489
C           3.91072091413665    6.35527711994129   -1.79592219805018
S           3.61089350518296    6.50020164770746   -3.51988330730571
C           1.23166612856128    6.61515411368706   -5.65800695014012
C          -0.02770965781130    6.16310491877605    0.00989419339333
C           5.21244841794843    6.33670223889097   -1.22226144286802
C           6.45212195307674    6.38535600861176   -1.82678169022538
C           7.49049736032156    6.32802740234843   -0.90638033151346
C           7.07330172326786    6.24286207450564    0.41603146121427
S           5.33614289069684    6.24250945199807    0.50611754990840
C           7.93905801957644    6.12466392465999    1.53067470151372
S           9.65388644702795    6.03942287007888    1.20440834335977
C          10.05711628460847    5.84371180285305    2.89377997464025
C           8.90220755940486    5.86387300935121    3.66796281010813
C           7.70691603665404    6.03918408149252    2.90021130893805
C           8.88639130765047    5.71342891364570    5.11188885513891
C           7.58864762981584    5.94336260768986    5.73843447668131
C           6.39743462107868    6.14786591163495    4.97389617261143
C           6.39535220558847    6.13475114802852    3.51500261050685
C           7.37729047970256    6.02082748062792    7.09265239395327
S           5.71079354795753    6.34315016279364    7.43219419457399
C           5.29090738193784    6.38097866740199    5.75320540990904
C          11.42964940220529    5.71436119580931    3.21928119064310
C          12.46915975064265    5.87075352503037    2.31166459276795
C          13.72983501413271    5.67040239528450    2.85559725509066
S          12.04961905745915    5.30117966556495    4.79250950770837
O           9.88115204229054    5.41798305132075    5.77093574119457
O           5.35138218363971    6.22076531852869    2.87190370771914
C           8.35196631856363    5.86438190243424    8.20371765934590
C           8.58923439896871    4.38893804518877    8.53739879535012
C           3.88592080719863    6.63460728101519    5.33934463237517
C           3.14043308092045    5.32902528305349    5.04797712523830
C          13.67815781697952    5.33641913518168    4.19437004975669
C          -0.82712173262884    5.15553065320823    0.53338616509439
C          -1.00137658563551    5.01678302218855    1.89970947006384
C          -0.37373598051596    5.89692590166345    2.77414408707068
C           0.39338059911167    6.94049821807728    2.25134976892405
C           0.56280309062423    7.06919970638105    0.89277914384336
C           0.65854581314926    7.62842107203015   -6.41646953775289
C           0.96614394566571    7.78351844567597   -7.75642178831211
C           1.86017305488590    6.91186065117548   -8.36971430256516
C           2.43977655351394    5.89255507354039   -7.61069707799222
C           2.13388273013270    5.75076628506248   -6.27642357074880
O          -0.43249284902403    5.83418748341954    4.13172132370338
C          -1.17664738296614    4.79922216323540    4.74284681182749
O           2.23201603956260    6.96234061460515   -9.67539448216379
C           1.69269497470389    7.97120460497716  -10.50547002118077
C           2.28238109633449    7.78982295755123  -11.89534909589680
C          -1.03123109825878    4.95715571105800    6.24852041800818
C          16.04749979703124    3.82271018626818    8.30487526948797
C          15.85273797128531    4.31974961109339    7.00348739954997
C          16.95793927942142    4.62976127737843    6.16964833914899
C          18.27066350064229    4.47851360426390    6.57981936312362
C          18.46353866408674    4.02388836417381    7.89706389649865
C          17.36023805137398    3.69982444366188    8.72622721317420
C          14.62074060004380    4.57960602489475    6.36067190555241
C          14.74872892177684    5.02626310331507    5.07692428088462
S          16.43062383563498    5.17262743436929    4.59475307447089
C          19.69459618123576    3.83106471024929    8.56219390735677
C          19.57034673009366    3.33348082309061    9.82750669060942
S          17.89054993519315    3.10288887031945   10.28187740117079
C          14.89917136748375    3.45224151035255    9.14205874106993
C          19.43544818221651    4.76556139089832    5.73262551830543
C          20.65764054392098    3.00769633788506   10.68325118101465
C          20.64776990488315    2.41964474756436   11.93243107319055
C          21.92739480669698    2.21887249606234   12.43067180835391
C          22.94064884678739    2.65418775190451   11.58529336754911
S          22.27000887613368    3.33494394235679   10.13128735855375
C          24.32412907482773    2.53673891778002   11.86338630146420
S          24.77239121506320    1.68061996572864   13.31897969293574
C          26.48215912064721    1.90738309712789   13.03470721318458
C          26.68093700677755    2.64361586360950   11.87056658266801
C          25.46284870699526    2.98072579755916   11.19819795028730
C          27.98330405779419    3.04991611457361   11.37640541177551
C          27.96166584477681    3.82208246504575   10.13775303249064
C          26.74702146388373    4.12410426784316    9.44510654024145
C          25.44189437071489    3.69256856890970    9.93393389411364
C          29.07122279018823    4.35895228732513    9.53229576423509
S          28.62690155532631    5.22595015683182    8.10206797522102
C          26.94409502147930    4.88376389072000    8.31796079839088
C          27.37155730491634    1.31249427793133   13.96193323511637
C          26.97179468120155    0.53618593650536   15.04283865520549
C          28.02127703549064    0.02123372521602   15.78954317261588
S          29.10822063007909    1.40868257624142   13.89033418829743
O          29.03616091206210    2.78573651461316   11.95465373176296
O          24.41044059500336    3.91772078764965    9.30387679162450
C          30.49981743442875    4.26092075504890    9.93330397366068
C          31.11126557608308    2.93054323860197    9.48440461044073
C          25.94695167392139    5.38770834030312    7.33705837142491
C          25.56510195623442    4.30649844194125    6.32139560347347
C          29.25383870286880    0.39932123737912   15.29478326383765
C          19.58077017052149    5.98934835327138    5.09288671636367
C          20.72926075493038    6.29340251748788    4.38239541785503
C          21.76105256837734    5.36507162261500    4.29635179184486
C          21.59841025946270    4.11346891423900    4.89455824972648
C          20.45525201966535    3.82138456256425    5.60085526731433
C          13.92271792975317    2.59129763833119    8.65409204151901
C          12.81589908669352    2.25713561637339    9.41225071631408
C          12.65972719780167    2.79324042156381   10.68640761651309
C          13.64697989528733    3.64424517380095   11.18832248708802
C          14.75100931241234    3.96335741680447   10.43025466329932
O          22.95152476603024    5.56714470735048    3.67082436260465
C          23.20444796646648    6.81531836445083    3.05740232106080
O          11.60321636675648    2.55869865921874   11.50838638848568
C          10.57649826469318    1.68836924087353   11.07459290605352
C           9.51871353751877    1.64192062629754   12.16603948226983
C          24.61366780509529    6.76989977549693    2.48772404412438
C          34.22054901413921    0.31182772418520   15.61503009693010
C          32.87563910473138    0.02850440283132   15.91811915595783
C          32.53431807099414   -0.84520872309619   16.98243734644157
C          33.48582957883405   -1.46625311600994   17.77077711216974
C          34.82968924218496   -1.21803592396749   17.43755637447283
C          35.17323647734390   -0.33991160342370   16.37876096171098
C          31.72848011147972    0.50876281259010   15.24670970781592
C          30.54948235287022    0.06927548374127   15.77660816144690
S          30.80131945875814   -0.99293444172457   17.15210905496542
C          35.97275112612562   -1.78164836150655   18.04517969420674
C          37.15489043584136   -1.34175450256476   17.52293711119425
S          36.90901396534350   -0.19633312627871   16.21529271758109
C          34.54219323558520    1.24497416570233   14.52784902640270
C          33.17667010654749   -2.35952142524739   18.89513902895815
C          38.43850684012909   -1.75026606560406   17.97787291477035
C          39.69345131475536   -1.33823539223720   17.57685455571867
C          40.70667081495824   -1.96399882189958   18.29051735286973
C          40.25543827340716   -2.86934800675799   19.24296756534051
S          38.51746718889988   -2.93942664443283   19.23985452510174
C          41.09475501579890   -3.60757990979035   20.11358180065841
S          42.81117515086496   -3.30526840024742   20.00892237157480
C          43.18406223209845   -4.44789404717041   21.27773926983436
C          42.01840590646108   -5.03653602349986   21.74879545345242
C          40.83697983198194   -4.56516470915801   21.08957999490521
C          41.97991345055812   -6.03887235548781   22.80229031421835
C          40.64930376188197   -6.55805389133206   23.10888505048916
C          39.47231251615372   -6.09820709364597   22.43744297411061
C          39.51172365443512   -5.05594655722007   21.41784051217127
C          40.38450784693813   -7.52156108923703   24.05045284218382
S          38.69413654873441   -7.88881546768728   24.09289510392592
C          38.32997108704036   -6.73726103795708   22.85315906319322
C          44.55717438679849   -4.59743956423157   21.61404515809652
C          45.58213847197599   -3.90891182852239   20.98833419007245
C          46.84997217533269   -4.21748594511369   21.48449853447924
S          45.19780165655535   -5.64868025899125   22.84769723528051
O          42.98398396500540   -6.43433376414406   23.38790290916174
O          38.48575963949270   -4.63300508720837   20.88851746738385
C          41.32858940813910   -8.26229644032795   24.92696614516919
C          41.96843315479129   -9.43062015458447   24.17116641243043
C          36.92456751156701   -6.54404700052812   22.40781226204419
C          36.26319127561914   -5.37450554812080   23.14314953317209
C          46.79143674348722   -5.13940726349009   22.48944966526653
C          32.34924818838694   -3.46318152630836   18.73772292119732
C          32.15948151945771   -4.36719865020202   19.76897053966070
C          32.79677685482126   -4.17433315981591   20.98970719414931
C          33.58529113114029   -3.03582601409014   21.17104087825768
C          33.77333245029083   -2.14685219086816   20.13898883406567
C          33.94572790150732    2.50048812517513   14.48471918716811
C          34.16205044832824    3.36264623629209   13.42624396075542
C          34.98518297372524    2.97574994039439   12.37344663754360
C          35.62030003771091    1.73324800285391   12.43238648252260
C          35.40495967634954    0.88380310275615   13.49459161539400
O          32.72963819738572   -5.01751178067286   22.05496739797853
C          31.98630625874264   -6.21461108728894   21.94132954836990
O          35.22765545516364    3.71767903220597   11.26070145835930
C          34.56169745114650    4.95582181459758   11.10751153783274
C          34.91266048554868    5.50303130590868    9.73265004212145
C          32.13981798917112   -6.97606752921705   23.24880495228651
H          -1.60629003557760    6.39594219135278   -5.65869311374445
H          -3.75392978785212    6.22420889812481   -4.19225853212750
H           2.74331280272591    6.13401797468137   -0.01509110977676
H           6.58838947641106    6.45346618047528   -2.89192888831449
H           8.53221898423405    6.34339436166023   -1.17784257493280
H          12.29522713882636    6.13051910660218    1.28157142152657
H          14.64985157625816    5.75169394404461    2.30365645352583
H           7.98028466387382    6.38550373133355    9.08839483316206
H           9.30423201249880    6.30386316294180    7.89900502332089
H           7.65510935957539    3.89973251504466    8.80679093651406
H           9.28152167455618    4.31289742997633    9.37182386880145
H           9.02266292940476    3.88462852763835    7.67773686941106
H           3.89307739004669    7.23531321105385    4.42753984131727
H           3.36922150617792    7.18289464996364    6.12977889420125
H           3.60869615436668    4.81796148791382    4.21112761132989
H           2.10868119761709    5.54865318417095    4.78702616346609
H           3.15643388178886    4.67602846880808    5.91871718534304
H          -1.29803738303358    4.44729323610111   -0.13211423288122
H          -1.61702256169806    4.21107431649070    2.26783477268543
H           0.85661403762462    7.63122875286828    2.93812470903776
H           1.15230362326638    7.88551983926063    0.50274731463780
H          -0.02384908234925    8.32279761715462   -5.94766261307139
H           0.50526569252025    8.58802290414556   -8.30817271196753
H           3.13015506057111    5.22218558606989   -8.09771285648617
H           2.58230074566968    4.95056785590756   -5.70711511613680
H          -0.79213702614038    3.81992890839022    4.42481489538351
H          -2.23406832893664    4.87304207306271    4.45311451377159
H           1.95191921382211    8.96369498268716  -10.11051184582375
H           0.59754210098300    7.88357790498380  -10.54407629945384
H           3.36501508060662    7.87056759390969  -11.85130510908516
H           1.89352858348198    8.55186535905935  -12.56477262371086
H           2.02437095549668    6.80785162173381  -12.28227816905809
H           0.01389607296297    4.86879638380555    6.53239111018708
H          -1.60605988938154    4.18957312526100    6.75843212942092
H          -1.39144134911172    5.93575176874109    6.55383916019494
H          13.66244685073498    4.45035896206401    6.83094812225362
H          20.65118852776554    4.05732420665959    8.12677351740422
H          19.74457384933990    2.14396007881446   12.44813901903125
H          22.13373476850878    1.76841880248503   13.38646644991910
H          25.93415115979748    0.35257985984893   15.26295492538787
H          27.90073837987016   -0.60326328538130   16.65739523039055
H          30.56027045153543    4.31976596712575   11.02226754918081
H          31.05685559981674    5.09069206171448    9.49236490442265
H          30.60069523299479    2.10715710375774    9.97626578229219
H          32.16301301021632    2.89367272056309    9.75581413099780
H          31.02272111567532    2.81201767917651    8.40651846532725
H          26.35964244417397    6.25408174729907    6.81562658094998
H          25.04514732124203    5.68601605243224    7.87598675621532
H          26.44623044632706    3.94693907742448    5.79349086224794
H          24.86113426307734    4.70997862895542    5.59826938835393
H          25.09287653734667    3.47326995651247    6.83459722664051
H          18.79955452341943    6.73050171759884    5.17406115077935
H          20.81095124797712    7.26117588876402    3.91283815921332
H          22.39396093492079    3.39141394686864    4.79948249371295
H          20.34011658573741    2.84698726350885    6.05182862352585
H          14.03772142582715    2.15916902337909    7.67072348521224
H          12.08380565284219    1.58221777419075    8.99760903705453
H          13.51761521376632    4.04859573213741   12.17980782502604
H          15.49673557362335    4.63556588996886   10.82719764766332
H          23.12043131685419    7.62313378583036    3.79802923688314
H          22.47553393551623    6.99689869858117    2.25536845752459
H          10.98530701904554    0.68336572115093   10.89855282959163
H          10.13628623425234    2.05700275501565   10.13755519739189
H           9.95895348966323    1.28730895133683   13.09386644906830
H           8.71420942791215    0.97337810104718   11.87287969658056
H           9.11417096419168    2.63654182956184   12.33330017319149
H          25.33061861705306    6.59025163074125    3.28434114036299
H          24.84762696251343    7.71291615701012    2.00206332672882
H          24.69377153927222    5.96454327183949    1.76283077639490
H          31.76491302844737    1.14854942578962   14.38332440679956
H          35.93053583475594   -2.50446682824335   18.83995088812026
H          39.85702321244209   -0.60946378123821   16.80231111979628
H          41.75458327049530   -1.77449259868939   18.13212091477550
H          45.40530469475674   -3.20468371565524   20.19395444141882
H          47.75973535344052   -3.77739316913584   21.11650300643851
H          40.79386603530998   -8.63885634264791   25.80142483634168
H          42.11891218238944   -7.58228860633675   25.25044725093230
H          41.20433548622077  -10.10427910916022   23.78808859677325
H          42.62415716669904   -9.98570812712941   24.83621939549621
H          42.55808443996951   -9.05269753097402   23.34023643684220
H          36.35975309565801   -7.46065207534135   22.59205658935686
H          36.92063635788082   -6.32605049789092   21.33811931437323
H          36.29379134955424   -5.53195159123397   24.21961966260080
H          35.22682720580048   -5.27923666797194   22.83036194424537
H          36.78359232931311   -4.45107277181152   22.90382394720491
H          47.61373340991292   -5.54970968305249   23.04246709036121
H          31.87022874608497   -3.63980801453402   17.78607089260088
H          31.52496227051528   -5.22350582465346   19.60186442519325
H          34.05233314788180   -2.88154702639289   22.13089292103312
H          34.38394333120784   -1.26958570673413   20.29306265827120
H          33.30914573651548    2.81520722516458   15.29881981576807
H          33.67874139373600    4.32693298821667   13.43207514099406
H          36.27012569907824    1.45182697457930   11.61872843594120
H          35.88530824660959   -0.08291934783794   13.51286918756415
H          32.36739376272962   -6.81628249532741   21.10417292915935
H          30.92752685864906   -5.98602279029660   21.75658619318962
H          34.88602901832918    5.65736014366913   11.88933192147153
H          33.47520323348671    4.81328874314947   11.19230431955907
H          35.98860072819132    5.62854807527847    9.64703171350769
H          34.42790565162426    6.46364698986186    9.58304753787762
H          34.58287666580144    4.81168950740444    8.96150919159922
H          33.18740528565733   -7.20476524334912   23.42518406531110
H          31.57388579669058   -7.90227009220274   23.20667413542710
H          31.77478482289921   -6.37100545486535   24.07416504399152
