149
 SCF done       -279.306625444280          0.000866469709
C          -1.17794189466963   -4.59497781131595    9.81958829031901
C          -0.25309629071889   -5.47566340806259   10.34775789541395
S           0.07366627741122   -6.75112239725503    9.22792463363353
C          -1.03936137989507   -6.09333198956290    8.06148686869806
C          -1.61510089071278   -4.93406265087161    8.54301702999921
C          -1.26725867402034   -6.71637088943963    6.79288140868665
C          -0.72879110487235   -7.94444955639906    6.43181628407795
C          -0.94250474302516   -8.56157710318818    5.19444310070777
C          -1.70589594858679   -8.01314059449147    4.17266249087589
C          -2.28235533642561   -6.75172401559288    4.49706979736991
C          -2.07346096000015   -6.12171403128708    5.77913258295598
N          -3.06120772254271   -6.01601870830341    3.70905324015992
S          -3.48833954843474   -4.67517192384404    4.48543788368525
N          -2.70823377284274   -4.95625420587111    5.86240508751787
C          -1.89988754569193   -8.63967793382510    2.89909970413219
S          -1.28835867902435  -10.23093245671096    2.54973039841987
C          -1.91050933446896  -10.18186159046110    0.92756781455533
C          -2.55075763764838   -8.98444076294202    0.69705097205221
C          -2.55176177045814   -8.12726541602929    1.79677563268274
F           0.05068096597717   -8.61945149107604    7.30047325684733
F          -0.34731993464242   -9.75833523117010    5.01844223001181
C           0.38631151734086   -5.42167757008674   11.64037252523348
C           1.38095652089258   -6.35868563910607   11.98905002043020
C           1.97988425226654   -6.29059554016353   13.24127227336536
C           1.61169181049267   -5.31713019774203   14.14607303859887
C           0.62893064704550   -4.38194520991456   13.81989440292299
C           0.02765802305594   -4.44358312254676   12.57385888490554
O           1.68644069897356   -7.27899916222670   11.04141011840327
C           2.65660174838971   -8.27598410213225   11.28926996510922
C           2.76798206714889   -9.11883957356822   10.02868708442456
O           0.33779425781611   -3.46668492726039   14.78526170095092
C          -0.65108823129565   -2.49045745079574   14.52814716503967
C          -0.77002917063438   -1.61758419217868   15.76770054442352
C          -0.89498836231735  -14.76636574311819   -3.78279228681188
C          -1.00182473296508  -14.72466154868079   -2.40470722732341
S          -0.82439518939038  -16.30910174561547   -1.73485609229171
C          -0.62100516587838  -17.01534549516517   -3.31226200071788
C          -0.67437298550288  -16.04179960909867   -4.29101619071499
C          -0.42592498406029  -18.42171800098579   -3.49910249044678
C          -0.58233202554781  -19.36153090824301   -2.48874553968657
C          -0.42575374944349  -20.74024401074031   -2.67016911058851
C          -0.06970930092002  -21.33122271287802   -3.87522521088032
C           0.12782763855411  -20.40237699590819   -4.93713167127411
C          -0.05787790752173  -18.98228883645479   -4.75596625300835
N           0.47826821142757  -20.69703162363794   -6.18576034125998
S           0.57166320481985  -19.34099947974382   -7.04520771203276
N           0.17011259721984  -18.30969621711268   -5.88037671993785
C           0.07832020617228  -22.74503825409555   -4.05256103559826
S          -0.40682470927632  -23.88755737423805   -2.83339933344025
C           0.06672636546089  -25.22784899969408   -3.81977996183588
C           0.57519379641323  -24.78394524033528   -5.02706052124885
C           0.57669064719990  -23.40014716977078   -5.16200623417309
F          -0.92250481464396  -18.96209441001640   -1.24690504143864
F          -0.63696399668106  -21.50879942396623   -1.58295547008924
C          -1.24062311836336  -13.57687891507528   -1.57079263785948
C          -1.14755578598239  -13.67038765833853   -0.16462013486965
C          -1.37173702363191  -12.54770512844186    0.60831447366521
C          -1.70736442509776  -11.31049330689940    0.05305149573660
C          -1.81645418728196  -11.21721095021939   -1.35355884650740
C          -1.57681160110355  -12.33902389170589   -2.12624964954239
O          -0.83105291737417  -14.89020801749147    0.32838928629126
C          -0.74203472873576  -15.10068394391110    1.72448032770014
C          -0.36260238136645  -16.55773777352812    1.93537394772413
O          -2.14049626781676  -10.00303844612228   -1.87386467509979
C          -2.15397311666907   -9.82382001443911   -3.27605162206810
C          -2.46796450449802   -8.35942167098413   -3.54297624964586
C          -0.12744887460998  -31.81018177418132   -2.50056068934585
C          -0.65236646538688  -30.61203678718451   -2.06406130591345
S          -1.76698795902166  -30.88606970470246   -0.75816971962536
C          -1.51913401758600  -32.60754326560089   -0.82145575545776
C          -0.60683205284524  -32.92039821096621   -1.80880262583071
C          -2.20749472733242  -33.50677548696874    0.05401016431747
C          -3.10972516185039  -33.09788283199902    1.02644177259794
C          -3.79686653782953  -33.97347619722039    1.87680985214118
C          -3.65738382640725  -35.35289740477545    1.84860673307221
C          -2.73553596768168  -35.82051863240614    0.86962014262123
C          -2.02687170868363  -34.91933965424931   -0.00729126523801
N          -2.41216526773063  -37.08951238430294    0.63382773784964
S          -1.33613917620571  -37.15230151812208   -0.55735294311777
N          -1.22249245296919  -35.57450801696946   -0.83884331594486
C          -4.37258359959360  -36.24490911705935    2.71862764804906
S          -5.50676046757270  -35.66207773864517    3.90897609293119
C          -5.84503966959782  -37.25762286708260    4.42358343544434
C          -5.13509893562472  -38.18942574799995    3.72908161614744
C          -4.29730673137801  -37.61811501675849    2.75969726560301
F          -3.36909244793789  -31.78635032349002    1.19270515869976
F          -4.63669548863347  -33.40142153615643    2.76015286779766
C          -0.41850910128991  -29.26786176511100   -2.52848647065221
C           0.25177729454797  -28.97451479900535   -3.73948750396830
C           0.39577198734893  -27.65543802783158   -4.13030871451735
C          -0.08666259852209  -26.58554034921071   -3.37145024508552
C          -0.73663073664356  -26.88007326763760   -2.15179084155011
C          -0.89098818294220  -28.19632830289862   -1.76445183770435
O           0.71314864486790  -30.02343934680997   -4.47153969786649
C           1.31580304871401  -29.78912091675327   -5.72934346108683
C           1.67613909225231  -31.14398634845404   -6.31996942939480
O          -1.17563592294874  -25.81613842681016   -1.44134458982611
C          -1.83389217732560  -26.00046787465989   -0.20225168862054
C          -2.21128305297625  -24.62223683372886    0.31635708832187
H          -1.53077951160836   -3.71992554087765   10.33461803950168
H          -2.32857484293165   -4.36355440189745    7.97878493401352
H          -3.01621636195216   -8.74398410321566   -0.23878250092591
H          -3.00908778329210   -7.15579197063485    1.80399248606844
H           2.74049229304864   -7.00203297045267   13.52043395502998
H           2.07393829830219   -5.26395344808260   15.11832703212774
H          -0.73790358422651   -3.73654896686841   12.30471796690829
H           2.34641153912719   -8.89720731401598   12.14080045413540
H           3.62349508683029   -7.80990679118433   11.52467070425421
H           1.79946755064993   -9.54137553884226    9.77816829957081
H           3.48489885834032   -9.92047680191941   10.17993873092396
H           3.09068618248453   -8.50004075803089    9.19659395504082
H          -1.61380897506014   -2.97516660642891   14.31247084914186
H          -0.36241773670890   -1.87982283184263   13.66083733105063
H          -1.05278704140272   -2.22551442573090   16.62254547301460
H          -1.52247689134109   -0.85031659204204   15.60953068560147
H           0.18457949616186   -1.14456122223710   15.98051177795909
H          -0.96122967431186  -13.89712772320959   -4.41181272148357
H          -0.55999950173866  -16.26372737961668   -5.33528460583808
H           0.92916512597458  -25.43893173324463   -5.80244953553976
H           0.92701022607152  -22.87919007279569   -6.03300299615092
H          -1.29785329486243  -12.61080129497263    1.68243145881210
H          -1.66115477276470  -12.27417373314434   -3.19725712809156
H          -1.70930056207501  -14.88254546724643    2.19694492880177
H           0.01999216339124  -14.43868621684001    2.15724559750294
H          -1.09399500219653  -17.20411671316737    1.45883147119647
H          -0.32073542528864  -16.77923098846709    2.99764696987473
H           0.60735832435183  -16.75676820279039    1.48891700187754
H          -2.92064828656301  -10.46420417127721   -3.73423618364429
H          -1.17458008962356  -10.08491930450087   -3.70005900029745
H          -3.44549663919203   -8.10828456902404   -3.14020162943735
H          -2.46492461194828   -8.16906724498545   -4.61228409503730
H          -1.72321312432397   -7.72899089240562   -3.06485000981187
H           0.59046765854936  -31.87653844567576   -3.29411046334400
H          -0.30777666904331  -33.93174894414920   -2.01068897444082
H          -6.55285256313741  -37.41597841990628    5.21311039993093
H          -5.20842783337621  -39.24779625390105    3.90421478638434
H          -3.65602619556269  -38.17923325144545    2.10708099035817
H           0.90229119005382  -27.42904118375952   -5.05228545932681
H          -1.39149657195732  -28.42544169785131   -0.83704450024767
H           2.22045528965304  -29.17718034477320   -5.60923846489968
H           0.61539825167526  -29.26157828276712   -6.39117864325299
H           2.38575694792127  -31.65531242357660   -5.67511808281532
H           2.12042804667021  -31.01214983123766   -7.30215437080916
H           0.78381165700951  -31.75731956325822   -6.41106737988120
H          -1.16310604993768  -26.50713672573212    0.50457843265316
H          -2.73163036310430  -26.61753050764856   -0.34163645338425
H          -1.32329950921045  -24.00346009482844    0.40691962794628
H          -2.69116908800550  -24.71115021054205    1.28639966394520
H          -2.89142528957119  -24.13746297923806   -0.37782987682659
