221
 SCF done       -395.528252746522          0.000850165510
C          -7.74696547791584    1.49854427777757    8.77682255412858
C          -7.63911065977572    1.54334197610724    7.37384827083509
C          -6.88599286150325    2.56676819851583    6.75054765273926
C          -6.22949543903103    3.57162973455858    7.45367693272987
C          -6.37078074706852    3.54913199047276    8.85303987755071
C          -7.12443292406350    2.52718193511712    9.47678560870255
C          -8.22161882348872    0.66475653041080    6.42676605621687
C          -7.90430901138348    0.96312513522685    5.13477981394294
S          -6.86985560518448    2.37273591889438    5.01589831566016
C          -5.84737465430545    4.46877368748969    9.80884316151715
C          -6.16454374085427    4.14574939542375   11.07863705585290
S          -7.12284296469009    2.71380469241357   11.21027223883394
C          -8.45174465497074    0.41853119482720    9.43685606319632
C          -5.44150195133335    4.57034835176965    6.75711949431018
C          -8.32792378642692    0.28375851712812    3.95931650798082
C          -8.40141387615767   -0.91719313774843    9.15047687715344
C          -9.21484206465752   -1.69894115340197    9.99379247433194
C          -9.89088562393579   -0.96895053037658   10.92242958759523
S          -9.52569250907274    0.71836174006765   10.77397924931230
C          -5.74300140081505    5.20996235114106    5.58819393665590
C          -4.73045995684301    6.08837191614955    5.15423602892465
C          -3.64818499542004    6.11880086536367    5.97781417034888
S          -3.86728977236340    5.05269589253228    7.32650834756941
C         -10.86865022055113   -1.44143360986784   11.94235502040517
C         -12.30382792528980   -1.10333566672484   11.53281565931141
C          -2.38160705753163    6.88730467965299    5.82125201766383
C          -1.22330397414587    5.97147701872433    5.42017276904240
C         -10.04033050125461   -2.12612729310189    1.52961744756804
S          -9.96419716534385   -2.18723134951201   -0.21208147795517
C         -11.07649040268333   -3.52095695929271   -0.29038734836408
C         -11.48610542205776   -3.90510211988591    0.98656920095733
C         -10.88866277227938   -3.10850937079744    2.00208493904567
C         -12.35079117461588   -4.88403658509625    1.52915881941955
C         -12.40060695910351   -4.82789592828841    2.89013668936719
S         -11.39359002579005   -3.57819383337411    3.59075104898716
C         -13.19611153873599   -5.69727233464472    3.75774415556611
O         -13.00283486339167   -5.39481490295332    5.04722509219297
O         -13.93482075051528   -6.56384958936040    3.35659590637864
C         -13.70172578210079   -6.18308702942271    6.00894387367869
C         -12.97457629797569   -7.49052457924403    6.28871786940816
S          -9.39958512386271   -1.08558533050366    4.01954721596384
C          -9.31475716006776   -1.15577921739508    2.25507764956638
N          -8.55487237658810   -0.24308679637620    1.72930235235783
C          -8.00584210310026    0.55484314676206    2.64525441935812
C         -11.45693989271666   -4.05390428286680   -1.53968182362919
S         -12.62224617804642   -5.37731774944298   -1.66443331244973
C         -12.45838850544577   -5.29427108047766   -3.39227045440848
C         -11.55500334510351   -4.30130100707087   -3.71625380140671
N         -11.02071871731284   -3.63752094262429   -2.69243622398660
C         -14.73960671078268   -7.81347751293598   -7.38159670427972
C         -15.73005565449925   -8.81444351828936   -7.30785292725409
C         -16.21396515447570   -9.24851899962229   -6.04902582956369
C         -15.75763733491594   -8.74731119380991   -4.83509238527127
C         -14.75202761546096   -7.76201530445601   -4.91016557850549
C         -14.27222295310207   -7.32103424487413   -6.16791899819787
C         -16.36433746239295   -9.49329519295999   -8.37616999794028
C         -17.32773344169686  -10.37142690603608   -7.97433785768570
S         -17.47985904649247  -10.43489937983144   -6.23114822190905
C         -14.11272302684110   -7.09281419905924   -3.84169986242041
C         -13.21361734963699   -6.14712370360710   -4.24083345229474
S         -13.07929768456909   -6.05853313672244   -5.98396499725419
C         -14.24861697390768   -7.29041869914619   -8.63994242854425
C         -16.30140703902543   -9.21157314318555   -3.57552041557847
C         -18.16682879048292  -11.17527018917901   -8.79351857416326
C         -12.96839437581359   -6.93439795117748   -8.96138878508143
C         -12.84343751898277   -6.41291253541836  -10.26373049767415
C         -14.02336300100199   -6.34758584877956  -10.93864169228481
S         -15.32393048154826   -6.95580089172346   -9.97023858996927
C         -16.65172580623837  -10.48850721901040   -3.23284963552242
C         -17.16290051309261  -10.59666191460040   -1.92520588197855
C         -17.22700895176507   -9.40762114406522   -1.26557763392591
S         -16.63920130526694   -8.11841412912459   -2.26005826140343
C         -14.27545278156930   -5.88970086199694  -12.33342770544585
C         -14.58180259713493   -7.07029330651409  -13.25759320230293
C         -17.65836742592267   -9.13864835667590    0.13421044105766
C         -16.45756048975892   -8.83170785905997    1.03236505917362
C         -19.86266218765213  -12.92061337950927  -11.75311359354805
S         -19.09334703639343  -12.77960697667167  -13.30887424161783
C         -20.34362370913505  -13.69459719682511  -14.09895703069479
C         -21.32264124544856  -14.08974512667963  -13.18802481067964
C         -21.03001525139215  -13.65229354255223  -11.86749062741461
C         -22.53486429789864  -14.81720401746578  -13.23669678178682
C         -23.11691075031874  -14.91612335299878  -12.00673083103324
S         -22.22276799960405  -14.13252245942300  -10.71862108329333
C         -24.37954021447505  -15.59750730396285  -11.71082185766691
O         -24.65358629497362  -15.54777685999656  -10.40260690053275
O         -25.07148680436852  -16.13778516696210  -12.53961851614790
C         -25.87081746443462  -16.15251423607853   -9.96991136015719
C         -27.05265424770687  -15.21095071599105  -10.15018070025768
S         -17.95211935967182  -11.29581060834889  -10.51560249407352
C         -19.35495981581875  -12.36209895332396  -10.55893491063006
N         -19.89397936010467  -12.57472335578695   -9.39360047374050
C         -19.25331876126802  -11.93715084051884   -8.41424399060132
C         -20.24866325799311  -13.94372124096822  -15.48298730764133
S         -21.52898649171608  -14.77157859837421  -16.37676621944689
C         -20.56208788568512  -14.60852420367938  -17.81185701384141
C         -19.38514426839924  -13.95814593945169  -17.49723961748415
N         -19.23494382138190  -13.60036994103016  -16.22368083753409
C         -21.06351053228118  -16.04327255987626  -22.81695723989405
C         -22.18183929522807  -16.63624332857328  -23.43670090147504
C         -23.37114149712106  -16.85995899909481  -22.70115530366919
C         -23.51031265605721  -16.54267074289168  -21.35418140240250
C         -22.37409415765876  -15.99460896417647  -20.72363988262072
C         -21.19015860989770  -15.75485900632449  -21.46420617907647
C         -22.29903085470746  -17.07400937016965  -24.77789044970280
C         -23.53153533316609  -17.57035434599308  -25.08696315870527
S         -24.61850513082020  -17.54292460325957  -23.71302050686310
C         -22.22352238619165  -15.62891580032534  -19.36562681278192
C         -21.00494224932834  -15.08810793608907  -19.07358733161365
S         -19.95545962891057  -15.02262497400824  -20.47290026537486
C         -19.86132166632454  -15.74464414937109  -23.56832628603296
C         -24.75983786695071  -16.75457510925969  -20.65344960610794
C         -23.97425356120467  -18.07493165699859  -26.34040110041535
C         -19.75784236537012  -15.19880421885970  -24.81699866293413
C         -18.42588657726040  -15.05063264630250  -25.25125476928489
C         -17.50894849475494  -15.48363893535898  -24.34356096884379
S         -18.28335440651994  -16.08191984812522  -22.91364109217988
C         -25.63229063371227  -17.79998958057240  -20.77819553655180
C         -26.77132122458433  -17.67838414807174  -19.95893054472866
C         -26.79052982101478  -16.53601121832480  -19.21921952203857
S         -25.37538280242312  -15.58416398997558  -19.51716879251304
C         -16.02543244962586  -15.52826394164520  -24.47022000018382
C         -15.52883766821636  -16.96188335743515  -24.66946297433047
C         -27.79865686872125  -16.08808127446383  -18.21868934833655
C         -27.24361516631682  -16.17845260109798  -16.79529870355486
C         -24.17927988202487  -19.22099546062225  -29.99162487144754
S         -22.70507900842492  -19.17220241734392  -30.91614564486586
C         -23.48901366954938  -19.76789378354097  -32.34815945801811
C         -24.84339621118000  -19.99321248820864  -32.11802504320067
C         -25.21620448956033  -19.68066425204988  -30.78090246707180
C         -25.95243632406268  -20.44725829421514  -32.87202999884017
C         -27.09548506593218  -20.46907514920636  -32.12878750261785
S         -26.89156516884973  -19.94270695650196  -30.46908667446403
C         -28.42120328240029  -20.87276217160220  -32.60661850744239
O         -29.32943592951576  -20.77398218521236  -31.63003959620919
O         -28.65394808632584  -21.24844363676578  -33.72964191860468
C         -30.67776407228246  -21.10366374808230  -31.95976548272246
C         -31.39182162939431  -19.92717732332656  -32.60970319620542
S         -22.91609670043582  -18.20353917067609  -27.71578113994206
C         -24.27809653902063  -18.84315849930258  -28.63331379586678
N         -25.38148322305227  -18.93066541641700  -27.94973589622808
C         -25.23378999914591  -18.51617086608945  -26.69124194822288
C         -22.72058172226370  -19.95159002762079  -33.52147051297762
S         -23.41905916819282  -20.55456297957225  -35.02839184717878
C         -21.85939059043298  -20.42963204121691  -35.73381773762304
C         -20.95782036809195  -19.96250669027745  -34.82451189423916
N         -21.45023143625605  -19.70250074015362  -33.60383332454808
H          -8.87393193821357   -0.14921455569784    6.68708201311121
H          -5.26840766787222    5.33471930291797    9.54686234528377
H          -5.89950730922402    4.66860529151147   11.97671891204548
H          -7.76700284547734   -1.33132830083057    8.38711695492927
H          -9.29012463899131   -2.76932963927624    9.91614690328237
H          -6.67670344949910    5.08300027088447    5.07080895737901
H          -4.80609232306241    6.68059488621043    4.25946027327760
H         -10.65141647195893   -0.97203958053585   12.90471109952240
H         -10.76349794747322   -2.52256193286496   12.05603389981606
H         -12.42085724900087   -0.02706332330187   11.42936361718328
H         -13.00465465967574   -1.45963062855986   12.28367071744494
H         -12.54536297200198   -1.57011415200274   10.58050423558998
H          -2.13369517275071    7.38665426529956    6.76134990785486
H          -2.52870487560356    7.65196556841174    5.05550919011208
H          -1.05832448302118    5.21635281813127    6.18548040173619
H          -0.31042007735180    6.54889828313052    5.29788654764879
H          -1.44666712003489    5.46901883727589    4.48176411956089
H         -12.91556364627801   -5.60139918516404    0.96339610468022
H         -14.71107546798062   -6.38413015375635    5.63458607290282
H         -13.75132667712759   -5.55845451056781    6.90298121697161
H         -12.94933101697990   -8.10014316032581    5.38879018792164
H         -13.49518184678037   -8.03713683069933    7.06974214208752
H         -11.95518653045559   -7.29168361822589    6.61095184433525
H          -7.35553918126007    1.35232396308366    2.33321445988680
H         -11.27365460673455   -4.04363078590975   -4.72163333511831
H         -16.12595322486897   -9.34399139453081   -9.41340972881678
H         -14.30111583402960   -7.29465898384522   -2.80334156434120
H         -12.13286361868858   -7.07655492906467   -8.30011333237031
H         -11.90655913525422   -6.09275214119292  -10.68410586774472
H         -16.50894200423693  -11.33352297653777   -3.88185340910246
H         -17.47373077448105  -11.52918300287031   -1.48838425973832
H         -13.39156285372529   -5.35885097094368  -12.69329331496448
H         -15.12063562653776   -5.19679096321205  -12.34691263466459
H         -13.74856424592054   -7.76935728997983  -13.26741039198624
H         -14.75459918828044   -6.72019556542357  -14.27202749493798
H         -15.47017836749962   -7.59649453559331  -12.91530064659545
H         -18.18756468424042  -10.01603244889128    0.51236302416377
H         -18.34546217847197   -8.28892032458102    0.15263290895698
H         -15.76027189947011   -9.66631510905212    1.03133858805579
H         -16.78256033287330   -8.65292836855276    2.05345617212510
H         -15.93460703956726   -7.94569173524855    0.68064484403997
H         -22.96834875665325  -15.24973020924100  -14.11938397627613
H         -25.71039723635808  -16.38772278690145   -8.91588801017229
H         -26.03064584721952  -17.07381752830642  -10.54025122247689
H         -26.87019428432702  -14.27633513295136   -9.62485089464395
H         -27.95162439223032  -15.67395517026890   -9.75404316967561
H         -27.20077044597480  -14.99978983338128  -11.20599192385399
H         -19.60155580838642  -12.03323315148501   -7.40141198792909
H         -18.61066295946850  -13.73173598496840  -18.20800718525272
H         -21.49441121713649  -17.04124597379109  -25.49009557819875
H         -22.98174651666838  -15.76211240243415  -18.61583779978454
H         -20.60832902349533  -14.87341000325153  -25.38932272901711
H         -18.15850867936870  -14.63206384106998  -26.20547703816748
H         -25.44615634726221  -18.65213670770461  -21.40645636248729
H         -27.55273042284025  -18.41651437600136  -19.92126469717558
H         -15.56696394528400  -15.11319919921843  -23.56933268523041
H         -15.72699695252183  -14.91328840923654  -25.32185038119443
H         -15.80963040537369  -17.57826227171346  -23.81842748083196
H         -14.44631335486676  -16.97603014910433  -24.76802387917900
H         -15.96633439442220  -17.39246204622088  -25.56741449892285
H         -28.68649259545630  -16.71729188581080  -18.31022648671327
H         -28.08856828449366  -15.05434833031089  -18.42439284972459
H         -26.95235717809762  -17.20031725150659  -16.56446392724454
H         -27.99397761841074  -15.86146524746743  -16.07600621918239
H         -26.37019238573045  -15.53947039356227  -16.68778513935209
H         -25.92620286602015  -20.74248939686933  -33.90470329128891
H         -31.14301980042157  -21.37228043658064  -31.00932014522367
H         -30.67636803283811  -21.96605178335925  -32.63466576480521
H         -31.34357510945035  -19.05504059464288  -31.96213629478947
H         -32.43245746843858  -20.18394153261903  -32.78486966963387
H         -30.92285806812010  -19.68827460209405  -33.56110871010309
H         -26.07566694466069  -18.53912068744145  -26.02270944740247
H         -21.70094258550671  -20.70233356850840  -36.75703225288625
H         -19.91302067028270  -19.79381530560512  -35.01174634600766
