131
 SCF done       -221.984618815431          0.000277876661
C           0.38259923337245    1.24471962182067    0.52626413814589
C          -0.37227028367957    0.62464816621511    1.49707146335272
C          -0.66323115085586   -0.70841028001655    1.20269471845387
C          -0.13920589857518   -1.13308902031299    0.00140265142416
S           0.73891623812125    0.15267902034231   -0.77881301687234
C          -0.24904469485286   -2.40934150545896   -0.60812887453833
S          -1.08641980304482   -3.71133277930954    0.18715747072124
C          -0.77292571607338   -4.80375897201119   -1.14026623718346
C          -0.05656753424114   -4.14729945170989   -2.12569195003799
C           0.24019821099374   -2.82073172519948   -1.82874739796081
C           0.84580972277698    2.59407792148361    0.51422877108674
C           0.59193862224582    3.57429701790656    1.43169507207837
C           1.20625875333259    4.81452008854339    1.11941316649272
C           1.92812654134601    4.73270799202314   -0.05534367525683
S           1.86688553845164    3.19039131845213   -0.77552880974062
C           1.14692084916887    6.04680292970248    1.84916942816264
C           0.51279046191968    6.39538381597936    2.99298566021610
C          -0.35740094725399    5.61563172110163    3.91599493520203
N          -0.75014405141095    6.47576028066716    4.91323829625770
C          -0.20724416123050    7.73482605906951    4.73419853287307
C           0.57587643510450    7.73219948299959    3.56596099049186
O          -0.71215549247580    4.45180438402804    3.87496894926014
C          -1.57825803642448    6.06759006337952    6.01966552871705
C          -0.75228837727666    5.80225545204240    7.27566864671987
C          -0.35520029754869    8.87218203735986    5.50310496581155
C           0.30147041448012   10.02315039274403    5.08831793016807
C           1.08024715797348   10.03212581473212    3.94168168215608
C           1.22373006981354    8.88862481610146    3.16975317421499
C          -2.03616438381849   -9.52078897395512   -2.99459706116697
C          -2.66946390760051  -10.70181153586500   -2.66948430587691
C          -2.73187378573953  -11.60420923127949   -3.73074798577412
C          -2.14753441139469  -11.13395164813120   -4.88917841647838
S          -1.50475011664423   -9.53580200490501   -4.64932410640181
C          -2.04698616253797  -11.78658337640207   -6.14839892920606
S          -1.19528815571126  -11.05799221385064   -7.47774495730553
C          -1.55236614857685  -12.41276818996551   -8.51532480965620
C          -2.30599733520605  -13.35344020573289   -7.84146638594783
C          -2.57650735856394  -13.00568222042272   -6.51799167304082
C          -1.82395032186768   -8.39217137796853   -2.15398859373070
C          -2.16085880416804   -8.25381221702894   -0.83633682544163
C          -1.83507488758714   -6.99737409679991   -0.27726588062864
C          -1.23037751059280   -6.14563490791681   -1.21746323270282
S          -1.07243726897916   -6.93944049600519   -2.75930487927491
C          -2.03908038591926   -6.61926528115334    1.08272884977018
C          -2.66113898177228   -7.23182033556723    2.12217471773515
C          -3.38099504290459   -8.52749338873095    2.24149744761138
N          -3.83946587379287   -8.61060785425648    3.53468144495467
C          -3.47494469484082   -7.49788360642706    4.26980156751343
C          -2.74768010041470   -6.62457444918464    3.44124916329001
O          -3.58130341121197   -9.40437357357976    1.41889651249786
C          -4.56158204261468   -9.75075734130010    4.03891547358401
C          -3.66111754080912  -10.67598568365866    4.85331388289139
C          -3.74016039073669   -7.19052503134124    5.58955675825892
C          -3.26038529333071   -5.98372216383265    6.08074211605908
C          -2.54002718975353   -5.11547752325074    5.27487035881758
C          -2.27787434533409   -5.42558457927338    3.94886042315961
C           0.01575434789354  -11.07069456206592  -13.32474415450813
C           0.19593266460523   -9.71505612234838  -13.47215445716709
C           0.59737634888523   -9.34631151701877  -14.75859478693689
C           0.72944021402018  -10.41363789209053  -15.61555675296019
S           0.34901059304438  -11.91079547799283  -14.81172598178779
C           1.11535737867353  -10.39829186290653  -16.98737695556023
S           1.51960081009358   -8.90294007592167  -17.78556147636620
C           1.82835931757366   -9.73334517386780  -19.25834964121163
C           1.63321067778275  -11.07335734661958  -19.14432303819948
C           1.22752654650454  -11.45638962853714  -17.85313360787977
C          -0.38779712388000  -11.78376822300410  -12.16170582526255
C          -0.54997311318821  -13.13389830776090  -12.01048859076959
C          -0.94564671623050  -13.52473371322351  -10.71326779576236
C          -1.09990720480523  -12.42782964909940   -9.86204433433756
S          -0.74369009909158  -10.93731676892314  -10.67750166036673
C          -1.04652270877527  -14.87869976968369  -10.24758892385342
C          -1.39791384032741  -15.98855760624163  -10.93360731754665
C          -1.93343547067232  -16.10409716419948  -12.31729546614861
N          -2.23064801768849  -17.43498486647296  -12.51398670024053
C          -1.92431616213205  -18.18669055573155  -11.39486658692088
C          -1.41704565081596  -17.33653568377831  -10.39396626596052
O          -2.13272896782478  -15.24419748895813  -13.15148743424327
C          -2.74694394714101  -17.94516752541153  -13.75848823337867
C          -1.64982518891675  -18.58417925870835  -14.60620862387369
C          -2.06527097284999  -19.54376424037127  -11.18152744493635
C          -1.68753086648038  -20.04734003030714   -9.94358771432168
C          -1.18353790782646  -19.21950259713997   -8.95238233280524
C          -1.04314625799873  -17.85631715818197   -9.16792200736850
H          -0.69900985699475    1.12692269474327    2.38885382852641
H          -1.24263101013389   -1.35430652152975    1.83887367275287
H           0.24278847255547   -4.63510367658985   -3.03657092532462
H           0.79178276891879   -2.16523956633985   -2.47918239107293
H          -0.01576793993603    3.43400846283483    2.30489338455517
H           2.49151969028962    5.51322421512294   -0.52897519822321
H           1.71969535799787    6.84063064943470    1.37997109235989
H          -2.08604944054502    5.15064540143355    5.70817286352617
H          -2.32595466788643    6.84420917650363    6.20680711447340
H          -0.03725150344984    5.00495763346839    7.08781695650256
H          -1.40415028493657    5.50146291219306    8.09134788238765
H          -0.20597415868270    6.69470243635530    7.57267786410583
H          -0.96068080909814    8.87696307031989    6.39602964101010
H           0.20250459067342   10.92605933496642    5.67217623706973
H           1.58064895366289   10.94152983644600    3.64520662463472
H           1.83115444098149    8.90917952692893    2.27755560616255
H          -3.07628086911532  -10.89355035036570   -1.69360042767102
H          -3.18925501778440  -12.57410727774832   -3.65913382677483
H          -2.69198703825001  -14.24052410401574   -8.31000027162337
H          -3.15595979572356  -13.61844607751203   -5.85181919828902
H          -2.63866825109006   -9.02574066084881   -0.26352044341322
H          -1.61015151563365   -5.65903169268190    1.33811136216748
H          -4.95104852996400  -10.28387308568334    3.16728854911892
H          -5.40056964333082   -9.39761977488291    4.64618413385078
H          -2.85191139575197  -11.04919629881895    4.23043402802255
H          -4.23537780262858  -11.52103115144022    5.22304546670679
H          -3.23036863296923  -10.14622903545580    5.69990510610890
H          -4.30337969527190   -7.85694688728039    6.22422234785514
H          -3.45387013359972   -5.71925876747765    7.10968259638805
H          -2.17964116257906   -4.18455529451545    5.68553526521348
H          -1.71931368384573   -4.73948004696051    3.33017720877664
H           0.03867476037227   -9.02009655221183  -12.66606091092281
H           0.78674238904502   -8.33248717062408  -15.06439049453642
H           2.13563242212981   -9.17381533679866  -20.11918727569552
H           1.77369037604355  -11.76528052293804  -19.95542239782035
H           1.02038597165012  -12.46991757242425  -17.55918650633017
H          -0.37806357211122  -13.82849211380605  -12.81072305317353
H          -0.79009286496738  -15.01426407571902   -9.20207646555443
H          -3.17684871356734  -17.09131525051827  -14.28967898023215
H          -3.53915414088699  -18.66893002306289  -13.54407703387912
H          -0.88759044162918  -17.84594184213051  -14.84347227824511
H          -2.07057789302424  -18.96167461606580  -15.53423863759240
H          -1.18078455899310  -19.40745070831968  -14.07183527959281
H          -2.45774438249045  -20.19861736007144  -11.94396517289940
H          -1.78882239110074  -21.10538338058948   -9.75264099800000
H          -0.89708420553723  -19.64159002217913   -8.00095931710648
H          -0.64950882536591  -17.21763942146733   -8.39139412193003
