176
 SCF done       -319.604383789684          0.000562754627
C          -0.00047496524164    3.37469164333823    0.02705593997782
C          -0.17073426371847    3.11854775491039    1.41033768340138
C          -0.99527368592025    2.11522512148137    1.90330589057687
C          -1.72305896125733    1.37970553903393    0.94550464842702
C          -1.56027024830818    1.63079162745239   -0.43736494116015
C          -0.69270781546643    2.60714229345409   -0.92624103135271
C          -2.67371589494985    0.36427870858948    1.17300221062389
C          -3.19666596550550   -0.18495358408041    0.02994909498894
S          -2.53225739721121    0.55494032485180   -1.40724892850467
C           0.90017548190667    4.45927901865593   -0.19125823747146
C           1.39891875940648    4.97100109561938    0.95163409725181
S           0.81395456111544    4.18550754617859    2.37575893674624
C          -0.52303856643576    2.78918732784902   -2.35469326031300
C          -1.10470009306260    1.80528687839809    3.31404696234445
C          -4.17695971635741   -1.22038358658464    0.04169454921454
C          -1.47974659150519    2.71992476247665   -3.32726733202739
C          -0.94017561052699    2.89781240733950   -4.61546085655167
C           0.40925549829077    3.08226580337981   -4.66621753864891
S           1.04987635436026    3.05406453968905   -3.05982239369519
C          -1.14511552543472    0.56875152950763    3.89509020663307
C          -1.26299387698249    0.64714611329334    5.29549997241887
C          -1.32675421354175    1.90876790541767    5.80702704644518
S          -1.22147439643615    3.05852396987416    4.51802774276445
S          -4.69010399620591   -1.78982374052756    1.60556340720227
C          -5.80655665342496   -2.92597333204614    0.90196709180462
C          -5.77168063287857   -2.85617530992674   -0.46217602423475
C          -4.85734645933094   -1.90071606740735   -0.96203471499038
F          -1.70758337888727    2.88642845029260   -5.72115145221286
C           1.27006997482794    3.31968790157402   -5.85848427584664
C           1.85106709487810    4.73428170378482   -5.85721021064838
F          -1.31472654410563   -0.45356015517781    6.07054422734298
C          -1.42314918666797    2.32676699632260    7.23347007509272
C          -0.14671142749269    3.03223192531159    7.69398150015382
C          -4.67298453704197   -1.68456140327699   -2.39905045901471
O          -3.84855867472692   -0.94899651856689   -2.89686347401629
O          -5.52522279591168   -2.41706678879478   -3.12378498800910
C          -5.43939755604598   -2.28149017797487   -4.54281264912077
C          -6.11799510129099   -1.00941676570837   -5.03131253183542
C          -7.50755386081064   -4.63783097518778    3.70618148556601
C          -8.18059435497229   -5.40849175814682    2.72307408598833
C          -9.11126007055818   -6.38876895852155    3.03604989534108
C          -9.32728360931812   -6.62746687200893    4.41124103648891
C          -8.66892271105196   -5.85278952821972    5.39676059555032
C          -7.76809299170864   -4.83862456058490    5.07600688974175
C         -10.15258177619137   -7.60557732576391    4.99889903259927
C         -10.18184863056089   -7.56975484419279    6.37083783180150
S          -9.15700795231123   -6.30692509833567    7.00813066790806
C          -6.60253649146421   -3.72385030071065    3.11726016315380
C          -6.59987513671131   -3.74655788507128    1.75421452852223
S          -7.71635201067990   -4.92937592310408    1.10972568820353
C          -7.14920511133598   -4.03361733351693    6.10896047930704
C          -9.84519261113908   -7.13003348860954    2.03118744743124
C         -10.93895707953574   -8.48530728449713    7.15830147253765
C          -6.73362530998119   -4.42848439726663    7.34990874940820
C          -6.20477605119686   -3.35948626407715    8.09780372895963
C          -6.21705517618579   -2.14519054049463    7.47774627954977
S          -6.90148285557573   -2.31866304507257    5.90020198813851
C         -11.16622991001801   -7.48091451138548    2.04879550732582
C         -11.53301310310893   -8.21531244701493    0.90534108286543
C         -10.52940951815887   -8.44770527488486    0.01286461396060
S          -9.06785171052715   -7.72141906017194    0.58843949227881
S         -11.79458578904121   -9.73389723296058    6.29645810340419
C         -12.41946719833411  -10.41807428376899    7.77056970739236
C         -11.99036732740572   -9.70557001440369    8.85452052208556
C         -11.15647062388001   -8.61261863248102    8.52591862137028
F          -5.71864112978430   -3.52837748391643    9.34097190475919
C          -5.72005971479424   -0.83490791623603    7.98241115958077
C          -4.60991855118116   -0.27104504338862    7.09537208544853
F         -12.78972911939691   -8.66164468475311    0.71583076590956
C         -10.59858467771958   -9.15854665432563   -1.29429657940892
C         -10.39317270748829   -8.19420932423556   -2.46332516729305
C         -10.60493179402084   -7.72613881260803    9.55366450554236
O          -9.85382822624424   -6.79730602893873    9.34874024755814
O         -11.04096432054422   -8.05404657354955   10.77413950168912
C         -10.56204647447585   -7.26193491182722   11.86159462617479
C          -9.16585247741545   -7.68613193539144   12.29341514834434
C         -14.38582818182313  -13.40425553921180    6.82544377771388
C         -14.61828178030433  -13.59075719889783    8.21108532963400
C         -15.34564877125729  -14.65856880640965    8.72048493282885
C         -15.90059820540109  -15.54662795245192    7.77780624528399
C         -15.66085136021710  -15.36662712728535    6.39392649808534
C         -14.89773680327765  -14.32008880649177    5.88367723701431
C         -16.72230482521001  -16.66927468464438    8.03858744207684
C         -17.06614302300195  -17.37324369985139    6.92355853198526
S         -16.40329154947191  -16.63857770976853    5.46765148144858
C         -13.61644442674249  -12.24286400789992    6.58081792513955
C         -13.23322160155041  -11.58577201767402    7.71241679206389
S         -13.83299399028766  -12.35722578122057    9.16265190813843
C         -14.63468761675746  -14.19980370879031    4.46429483063446
C         -15.51428603104324  -14.88830739769714   10.14092020152466
C         -17.84405015336847  -18.56687175656348    6.79423288012275
C         -15.47710046835610  -14.47888129071564    3.42471847780251
C         -14.86580095843512  -14.26491917803661    2.17431800605888
C         -13.56902394318754  -13.84640352611668    2.21821935414888
S         -13.07217895274401  -13.70309272808306    3.86757648159436
C         -15.42649370227128  -16.07571501004666   10.81075295743697
C         -15.65632469296238  -15.92030866131796   12.19061781286430
C         -15.92843954581516  -14.64808401364090   12.59786692033927
S         -15.88569441884652  -13.58489075143132   11.23380744675058
S         -18.20976986469461  -19.11648116082920    5.18555092913785
C         -19.00692255851313  -20.51440453691227    5.78049102159418
C         -18.98672478687558  -20.57041080410343    7.13285090221220
C         -18.33289416161550  -19.46291988891816    7.73534196921394
F         -15.52208371907054  -14.46064107922041    1.01628098824021
C         -12.65636302716304  -13.51144862105132    1.08976281106494
C         -12.17526906553888  -12.06202216763954    1.16277838385821
F         -15.60810954050601  -16.96072625452640   13.04405691728596
C         -16.20143127332064  -14.15295791125274   13.97583519980117
C         -15.11290835114224  -13.19003947733903   14.45075488813829
C         -18.25637433825925  -19.37060498029130    9.20489063403808
O         -18.19114349762880  -18.35615379874218    9.85899893098328
O         -18.31295800598411  -20.58991104821157    9.75606810274097
C         -18.27818108153502  -20.65230274320986   11.18274083640627
C         -16.86467824223493  -20.49331532103621   11.72397789465948
H          -2.99066453374409    0.06025192090562    2.15429281676075
H           1.14927698292534    4.84047285330119   -1.16376273387195
H           2.08728002847654    5.78585937158840    1.06257756500647
H          -2.52800413667868    2.57740438544268   -3.14637630506417
H          -1.04772149213107   -0.35911353833403    3.36329075848012
H          -6.38151211291982   -3.47001083027051   -1.09948491462352
H           0.66340503985195    3.16789306819395   -6.75366437311730
H           2.08826674472598    2.59492005636214   -5.86993380533445
H           1.05230964943986    5.47227182161254   -5.85832947626724
H           2.46645210569318    4.88755313622060   -6.73980141305709
H           2.46491065875574    4.88799318981871   -4.97247536951069
H          -1.59508993270352    1.43581610996820    7.84147859554055
H          -2.27313566622379    3.00273312902102    7.36052907339025
H           0.70906738642185    2.36821887898009    7.59604629606798
H          -0.23774545641507    3.33046029872989    8.73518937645030
H           0.03176846452311    3.91885588409771    7.08965159071457
H          -5.93703450897488   -3.17042164948897   -4.93581525269826
H          -4.38447572282574   -2.28147436871650   -4.83651045858864
H          -7.15105045415333   -0.97896470082068   -4.69264966426305
H          -6.09807776277856   -0.98226209892419   -6.11685407271279
H          -5.59223103440972   -0.13773717777680   -4.64933074834392
H         -10.69502215870118   -8.34080847216322    4.43243776870326
H          -5.95610634213415   -3.07052554909475    3.67343896178776
H          -6.76623441807490   -5.43679501342771    7.71615458865795
H         -11.86461134562321   -7.19314315969360    2.81216711393036
H         -12.25797479547306   -9.95290189759961    9.86547452780167
H          -5.34927915478584   -0.97944222702425    8.99936634598503
H          -6.54795338177072   -0.12071503106479    8.01848574077983
H          -3.76128248163863   -0.94983172469098    7.06750148603251
H          -4.27435300753972    0.68812204005655    7.48120286376692
H          -4.97373245469257   -0.12863237320951    6.07986048933092
H         -11.57793975377375   -9.63526531676026   -1.37465374364339
H          -9.83026048631307   -9.93537881252839   -1.33031733045817
H         -11.15968225998135   -7.42288346024548   -2.45670550313833
H         -10.44899284051621   -8.73147524004856   -3.40643019181531
H          -9.41916778736598   -7.71577751777190   -2.38919966681636
H         -11.28849598119352   -7.42060273717833   12.66112317045901
H         -10.56004909518824   -6.20919407212812   11.56052650982173
H          -9.15258409295784   -8.74585918160181   12.53723518429606
H          -8.86810453746645   -7.11567489478876   13.16828569532448
H          -8.45558096677418   -7.49646017920388   11.49263547700895
H         -17.08047223578593  -16.92264840431784    9.01682602753508
H         -13.35335024077932  -11.88546734627981    5.60259330409176
H         -16.50107925246601  -14.78435139378685    3.52939751766348
H         -15.17354268587394  -17.01503183462880   10.35611668268603
H         -19.44163043909803  -21.20985771191944    5.09093816848628
H         -19.42753529781379  -21.36249926069100    7.70938495082727
H         -13.19351434891514  -13.68120325725313    0.15424388177739
H         -11.78935727223225  -14.17834726780824    1.11204351682965
H         -13.01703232144041  -11.37600712157799    1.10951642837190
H         -11.50248713653867  -11.84973947502242    0.33594475325944
H         -11.64371488938541  -11.88692980003404    2.09601796700032
H         -16.25656639517400  -15.01414417903402   14.64507522883096
H         -17.16730518325892  -13.64110321775686   13.99485911633005
H         -14.14502379841015  -13.68589743558138   14.45919197146767
H         -15.33369590007998  -12.84150236811060   15.45625849800612
H         -15.05590720045266  -12.33053372200485   13.78653590486952
H         -18.68469461945581  -21.63590290160887   11.42680071347971
H         -18.92644531121175  -19.86825453236354   11.58803425657621
H         -16.20007866543716  -21.21939013142950   11.26146975564664
H         -16.86860128356221  -20.64769430889282   12.79893691053518
H         -16.49601073566959  -19.49166235113861   11.52014971624238
