179
 SCF done       -308.008624576009          0.000406124858
C           2.37785437323730    0.95165357664271   -6.05000469856773
C           1.30043002949350    0.07173950077669   -6.29131861786282
C           0.72098836003135   -0.66049742568935   -5.22428445195323
C           1.16923442585911   -0.58386999486609   -3.91038643555219
C           2.29738483354555    0.23283877979705   -3.68611979142866
C           2.86708574896775    0.97998488931170   -4.74886742669654
C           0.68513902937117   -0.21922291430990   -7.53077954470348
C          -0.35133846424845   -1.10448839085216   -7.42807219486135
S          -0.61462578136069   -1.63199936693963   -5.77708924978025
C           3.01060843088106    0.39911573533724   -2.47795211780608
C           4.06355997247018    1.26443096974717   -2.58452169079215
S           4.22104008966881    1.92761214432195   -4.19894863359592
C           2.92069432027133    1.77266250464474   -7.10997349255750
C           0.50084388115113   -1.28916517414915   -2.83817309791079
C           2.24355141038433    2.43188337147256   -8.09927301182794
C           3.08740159804810    3.14040289928401   -8.97435906121861
C           4.40837320583072    3.02688856101171   -8.66500309842536
S           4.63613933185179    2.03842088325751   -7.26129761807710
C          -0.04561839677565   -2.54354283782950   -2.85858920827272
C          -0.66419102031763   -2.89908095123293   -1.64584439456424
C          -0.60795595066041   -1.91989413824924   -0.70042657809684
S           0.22783439307884   -0.52885419475720   -1.29523936899435
C           5.58298127039516    3.58351237556346   -9.39249463522367
C           6.27482677329779    2.50262549476850  -10.22631987205441
C          -1.18415738749711   -1.92064890218571    0.67306185304913
C          -2.43804135263135   -1.04659732997508    0.74821651782018
C          -1.15728801156102   -1.61107351066405   -8.48508423825954
S          -2.41672486014858   -2.78954561276241   -8.16574912524200
C          -2.86674238762857   -2.88394397879564   -9.82847104644593
C          -2.09647614742037   -2.05950885430858  -10.58019207169288
C          -1.12726108045476   -1.33291124802382   -9.83186440942455
C          -1.96323005107842   -1.68460029153286  -11.99920310826838
N          -0.92588092576035   -0.75947272031681  -12.01855863087472
C          -0.37908545844738   -0.48688131557099  -10.76807048521528
O          -2.57156023449142   -2.06045000644401  -12.96828585317673
O           0.52467773281704    0.29383180135316  -10.58106535819171
C          -0.47804777327192   -0.10559396889303  -13.22928011859322
C          -1.26039487116901    1.17737820417373  -13.48724244239339
C          10.61318687413648    5.98529896243911   -0.32392336779296
C           9.81852644851812    4.89112064516898    0.08341151622300
C          10.14366791029029    4.16002515982291    1.25411962562186
C          11.26648540105882    4.43099653711788    2.03186618280243
C          12.10403975223173    5.47226022446207    1.57853916389882
C          11.75389896406246    6.22850275402059    0.42960353016643
C           8.67197475334518    4.36907833449189   -0.55314730135449
C           8.09976496777482    3.32570794419420    0.12440723413058
S           8.96142654455324    2.92519276601059    1.59266260147358
C          13.33428816843493    5.89329410963902    2.13119488425701
C          13.88975382438291    6.95848176020146    1.48011024477578
S          12.91668932866157    7.48980614027447    0.12265211169466
C          10.23020689152358    6.81296635059720   -1.44789154743455
C          11.56105169684535    3.68137280885784    3.23295706218269
C           8.97962705761768    7.25481534761069   -1.78136875135060
C           8.96429982643128    8.07038812865238   -2.92956741071182
C          10.19459840710161    8.24838725302801   -3.48396179129542
S          11.41179301455384    7.41092533535059   -2.57849367451100
C          11.38783699223731    2.34232904825106    3.46315128913108
C          11.81278683075994    1.93897155583111    4.74183936377092
C          12.28747439228284    2.96405132967333    5.50420495502959
S          12.21845641356082    4.46005858831737    4.64525117632098
C          10.57001267222340    9.05970909784715   -4.67558246008938
C          11.41149535860897   10.27397768517198   -4.27836465709504
C          12.91029176490890    2.91904341828353    6.85586914639853
C          14.43636343453385    2.97721205939869    6.73659483264383
C           6.95550920290517    2.58441648414633   -0.27233368113424
S           6.24151408307444    2.80183047006905   -1.86035977421648
C           4.99841591677292    1.60000302223210   -1.56863860697565
C           5.14195581952842    1.09022053613279   -0.29813258493699
C           6.24195921838594    1.63373123581835    0.41398429964262
C           4.47960401388183    0.11438813415557    0.57860661754497
N           5.21797911020081    0.12917920593196    1.75548588503030
C           6.29960940322403    1.00345549567648    1.73494957579679
O           3.50242328344429   -0.57540495709841    0.40168703032515
O           7.07502530764721    1.15969521656898    2.64743544250505
C           4.91142215393739   -0.71588072070914    2.88890879916932
C           5.62952232977541   -2.05731879982079    2.79138490880134
C          19.09816240731229   13.27109885255765   -0.22169734680335
C          18.96920751879773   12.11187003277444    0.57058869369090
C          20.01484644083148   11.71528827712004    1.44023351225986
C          21.21683789686108   12.41261019951695    1.54904368609608
C          21.36867634293611   13.53484821528036    0.71507451868264
C          20.31702993306598   13.93412231066242   -0.14523539257500
C          17.87811625375065   11.21655763161805    0.62454995412391
C          18.04732367429065   10.20547018872188    1.53066734488273
S          19.58534373372758   10.29779543884699    2.36007078804194
C          22.50024260333375   14.39302922475610    0.58421119436063
C          22.30501627778394   15.39391143450910   -0.29737202472989
S          20.74435706383426   15.36964776607604   -1.03897110607862
C          17.99478537829873   13.74352722162323   -1.03152239173349
C          22.23185464212888   11.98845927037775    2.49308491882711
C          16.67210215689558   13.80251639106615   -0.68846775868825
C          15.85445030315704   14.32581942040860   -1.70828709090201
C          16.54281960254402   14.66535558917498   -2.83249790233045
S          18.23543179294828   14.34577286216524   -2.64672831880784
C          22.59872772347329   10.71238494603795    2.81764070262562
C          23.58497490436764   10.65129773589846    3.82107440533418
C          23.96548578772779   11.87250746807928    4.28452899450360
S          23.11397565782088   13.13753586801675    3.46279075781835
C          16.01077477435982   15.19637070170418   -4.11869631231879
C          15.90888310061676   14.09097560136363   -5.17226899365312
C          24.99885811402175   12.19869953366548    5.30689830196107
C          26.28838772346419   12.69733520520169    4.65065949439252
C          17.12659717638095    9.16191925161012    1.80903861465962
S          15.64541469759449    9.00094069346889    0.88234666980805
C          15.11576651233887    7.60113149056378    1.79553335865442
C          16.04976166972955    7.30247824076942    2.76219518211733
C          17.17295138937974    8.17056876131349    2.75704767593488
C          16.24516631322178    6.32768471656074    3.84313522692424
N          17.46795919240364    6.65992027456107    4.41232763200784
C          18.09497994669353    7.74756653290444    3.81234826758806
O          15.54666431539742    5.41883689832751    4.23064308202711
O          19.16724144513115    8.19251159366839    4.14628008669578
C          18.05309484635210    5.91662626193699    5.50670352318300
C          18.77889410075784    4.67279701965303    5.00601194999456
H           1.00899779524384    0.18417402592100   -8.47250609655674
H           2.78322891760431   -0.11682587539563   -1.56340596125317
H           1.17173661280200    2.44063280959409   -8.17709994488165
H           2.72400901283847    3.71544248747147   -9.80726415697934
H           0.02877984636404   -3.20810525569765   -3.70042808876368
H          -1.13229766857148   -3.85295620303315   -1.47843617227347
H           6.29778659411053    3.99757547755082   -8.67752654402623
H           5.24283245859344    4.38951091833438  -10.04614785361649
H           6.63717951791226    1.70557478423026   -9.58120022475206
H           7.11832249692608    2.92455192572612  -10.76698050936110
H           5.57764020065583    2.07610061304462  -10.94374577800501
H          -0.44132650629373   -1.54435021925833    1.38034338470574
H          -1.43403724242601   -2.94699895629914    0.95002208242680
H          -2.19587491019574   -0.01862238556088    0.48813970980311
H          -2.85067498347049   -1.06356924601575    1.75383658906061
H          -3.19384942339294   -1.40929349100313    0.05506287959711
H          -3.66065399374368   -3.53525151568333  -10.13419574145786
H          -0.62113994216934   -0.80990803895370  -14.05223012737210
H           0.58531783438776    0.11443459563646  -13.10702610217928
H          -2.31921284910869    0.95500317421390  -13.59789692763361
H          -0.90449362529068    1.64838804348193  -14.39910228436685
H          -1.12795566298872    1.87041409553743  -12.65952326747356
H           8.28779283698864    4.72879154580493   -1.49095430490509
H          13.81767025636172    5.42692276556981    2.96900004391486
H           8.10449599412999    7.04153201342076   -1.19395836516262
H           8.06794626257962    8.51095649838306   -3.32935986714185
H          11.01088242228233    1.65827923729889    2.72491702015042
H          11.77014068867667    0.92037798559031    5.08477957602225
H           9.65739272401572    9.38910053884642   -5.17686795316328
H          11.14086690244455    8.44343638205620   -5.37520793766053
H          10.85821443133327   10.90860401438936   -3.58965764582545
H          11.67100174282248   10.85749744736448   -5.15822932870748
H          12.32823504319911    9.95180160655663   -3.78964477720578
H          12.61119851735192    1.99841211013825    7.36160142215022
H          12.56425149387622    3.76803588894623    7.44991549962161
H          14.80522139015176    2.10273835346994    6.20524427664208
H          14.89274173739540    3.00407786460442    7.72323477543726
H          14.73566410393015    3.86393257381997    6.18219508499622
H           3.82874364779973   -0.86348630594649    2.90260977490690
H           5.22679919929678   -0.18065167012827    3.78779811771927
H           5.32028404633893   -2.58406136086764    1.89148760963676
H           5.38699076239982   -2.66848864792117    3.65613430622171
H           6.70576430974095   -1.90410233701526    2.76107586078766
H          17.00315178544865   11.29650088839652    0.00442378309779
H          23.41915830373186   14.25293557942716    1.12219065531926
H          22.99332974933360   16.16688357459570   -0.57842662369327
H          16.30418683964562   13.52203929788015    0.28235828823991
H          14.79080457697876   14.45205802304204   -1.60761031067527
H          22.19974855931158    9.84061385483137    2.33241959569152
H          23.99197531159624    9.72760472704026    4.19234149801934
H          16.66733355245253   15.98633401362251   -4.49007349746215
H          15.02229457869528   15.62551854291465   -3.94087400838481
H          16.89101944983913   13.66632266035949   -5.36661666283351
H          15.51180542848310   14.49111902374177   -6.10179245307495
H          15.25157142583956   13.29711671166402   -4.82462611724188
H          25.20796720067506   11.30138358848163    5.89305282713800
H          24.61978572657357   12.96957606145006    5.98204597291356
H          26.68675712404939   11.94102852412528    3.97801817448234
H          27.03635262284943   12.91924431653687    5.40769407361585
H          26.09365202388376   13.60141990083495    4.07801640311056
H          17.24578022889965    5.63417696220089    6.18753421897048
H          18.74911646096960    6.58912782897110    6.01350234613802
H          18.08066500361391    4.01218881899815    4.49724026538629
H          19.21777385149753    4.13970130082464    5.84463492177950
H          19.57072720009839    4.95242117858093    4.31465563542296
