95
 SCF done       -180.644057718103          0.000594939787
C          -5.43656843062870    1.23524262313068   -4.92231460182892
C          -4.82797286749281    1.95855980646038   -3.88410925228584
C          -4.51813218214212    3.25088087371926   -4.23119102704082
S          -5.00274370904386    3.56966213127750   -5.87597221897200
C          -5.58471278217653    1.97183317259060   -6.05729029378698
C          -3.88368378506136    4.26527553588077   -3.42464002236189
C          -4.01127738936377    5.61786756776375   -3.70404397839216
C          -3.41537144235240    6.61127964635244   -2.92608475506571
C          -2.63297093702974    6.32560326416290   -1.81973377571126
C          -2.48261487324442    4.94851561102682   -1.49818343788188
C          -3.08438710341627    3.93721649224655   -2.29012288160737
N          -1.78203330727135    4.61242382083192   -0.39268450904066
C          -1.64785304105142    3.34879407618348   -0.09162668214055
C          -2.17668245599891    2.31765176753797   -0.93502544490994
N          -2.87318572983368    2.63742428029605   -1.98413101146952
F          -4.74349319916734    6.02980462497281   -4.75623355668022
F          -3.60761618648017    7.88657995326272   -3.30574841818697
O          -1.00477791090466    2.98097010932185    1.01452204337376
C          -0.50365652866999    4.02660995619609    1.84436844264606
C          -0.06735980821092    3.41505326841355    3.16312502677764
C          -1.94102114794509    0.88163760783563   -0.62005233143473
C          -0.81746399760390    7.29482140839505   -0.34501559357956
C          -0.49187402238483    8.47997321271520    0.31622368686030
C          -1.44312963629887    9.46409473540123    0.16965692018234
S          -2.75419652819747    8.91082088603911   -0.82340263837980
C          -2.01051091551538    7.36051494362234   -1.02704371837722
C          -1.42903147724177   10.80142571337826    0.71059727317435
C          -2.59656863656231   11.49433833698869    0.99124083194072
C          -2.59634978673754   12.78640780305807    1.51781011206258
C          -1.42986606256188   13.48959621226830    1.77218504972016
C          -0.21190804211238   12.80961220796996    1.49413772220105
C          -0.21039314266617   11.48968547705742    0.97551260813447
N           0.95890000871008   13.42887619069758    1.76304399824343
C           2.07535022926018   12.79792019011032    1.51494258076676
C           2.08551407202418   11.48753761099062    0.93372138919529
N           0.96259782562887   10.88041485101233    0.69146862960318
F          -3.79374626549092   10.91812171948832    0.78069878332333
F          -3.79124045712967   13.35503445125181    1.75339046407669
O           3.24785605560634   13.36407756679621    1.79380212423040
C           3.21017789349220   14.66834681931340    2.36832490665662
C           4.61494221247143   15.02849199401713    2.81585313035317
C           3.37046842145875   10.81142144217768    0.60417093380220
C          -0.53614347689378   15.84132574420266    2.05803477965155
C          -0.85142072335223   17.03693490254848    2.70653415282330
C          -1.99280566119610   16.95602930138029    3.47017021088408
S          -2.69521187246691   15.37413509550100    3.36622941469926
C          -1.44379894080623   14.83587373216821    2.29646391013405
C          -2.60720771041453   17.99982694247623    4.25876253319214
C          -3.34799481727240   17.72012565820778    5.39635514824008
C          -3.94051386857209   18.73138563978572    6.16453726315495
C          -3.82954055521014   20.05111793044166    5.82102073341192
C          -3.10382418352287   20.38234914710030    4.66671688157506
C          -2.48986042104066   19.36982483443339    3.88597868899902
N          -3.00614809651166   21.68416002880593    4.30713533744574
C          -2.34616590038707   21.97104149105681    3.21681329731940
C          -1.73690944830477   20.95130445810630    2.40843443551476
N          -1.81986705633514   19.70272374595314    2.75899952636163
F          -3.49429804224342   16.44970550131879    5.81543084411043
F          -4.62666353874721   18.38283810407837    7.26512141916654
O          -2.22748505672509   23.23295732508566    2.81282962195464
C          -2.86660368996205   24.21922590815445    3.62029160015323
C          -2.65737244062480   25.57290003821373    2.96707502092773
C          -1.01240395333830   21.31263645306263    1.15887857068176
H          -5.75147311323549    0.21104420521927   -4.83129461358779
H          -4.62508799177398    1.55906180152943   -2.90956568024601
H          -6.01102458625632    1.67026120983787   -6.99364624326216
H          -1.28755241707174    4.77821166218502    1.98728816772812
H           0.33955054847577    4.50845230790037    1.33598944503013
H          -0.91296395135413    2.94200075451378    3.65532381566300
H           0.33191402064197    4.19025265223805    3.81060561323681
H           0.69906989813793    2.66362075821966    2.99214921674399
H          -0.87197208802989    0.68774915321403   -0.55522314617063
H          -2.38379358376001    0.25894230145811   -1.39159362798272
H          -2.37750477523014    0.64016604717614    0.34784736080154
H          -0.19950091465026    6.41763753061101   -0.34918204887791
H           0.40179330563312    8.62379758145680    0.89266133132896
H           2.50550593800572   14.67094520102470    3.20705591554948
H           2.84402025936388   15.37593762398354    1.61551963472758
H           4.96554361659832   14.31831888943550    3.55985047071351
H           4.61613033733924   16.02477111860501    3.24797305813330
H           5.29514566840094   15.00696026604924    1.96857488685968
H           3.94779734581698   11.42959514247468   -0.08083160169236
H           3.16957416354072    9.84573229307268    0.15039209772576
H           3.96325367741765   10.68242664114239    1.50831955041113
H           0.31280742107236   15.70989348889192    1.41530941074871
H          -0.26892065634892   17.93526239287779    2.63264313704298
H          -4.28759339883068   20.82516031410657    6.41291640851982
H          -2.43501664847926   24.18847451283893    4.62694919498555
H          -3.93129288685651   23.97418000387955    3.70243535949892
H          -1.59606981788011   25.79447032067825    2.89346327018042
H          -3.14101288863704   26.34335829700210    3.56017669005963
H          -3.08233539667626   25.57549295735513    1.96688868827936
H          -1.68207638973127   21.84484205809147    0.48566433334386
H          -0.64323760994614   20.41241558883396    0.67714558092075
H          -0.18307056240337   21.97925297978462    1.39020442500804
