86
 SCF done       -171.135196931403          0.000399904629
C           5.73597046185132    3.96791378967827    4.59086651053176
C           4.86985002490869    4.99515212745953    4.18797818952485
C           4.02375392123984    4.62663277140104    3.16772025283320
S           4.31405143169635    2.96510127813985    2.71551134824637
C           5.55605502794845    2.82043124584770    3.87958872343726
C           3.01675629114123    5.41780847819015    2.50802298564514
C           2.02167398742964    4.84782660931482    1.72582268011592
C           1.02022612756636    5.58715463979944    1.09723147671379
C           0.93083579323761    6.97026112409664    1.18973028329740
C           1.95213322207658    7.59429469581614    1.96585248379530
C           2.97104045086041    6.84131768764102    2.60787609919220
N           1.92672082022228    8.93679002570501    2.07280685675154
C           2.86233051787716    9.53965079285081    2.76912344259115
C           3.89242958217446    8.77817091316144    3.39416123104630
N           3.92985282405295    7.48693202752145    3.30704243842328
F           1.97070108008957    3.51318761884094    1.55320467560302
F           0.12484984692944    4.87741752392551    0.38857747484452
O           2.89710809430482   10.85186045937624    2.91281533766583
C           1.88738324961194   11.62068243477250    2.25756648674822
C           2.15055765393240   13.08830521737615    2.53306543750533
C          -1.16376006478176    7.31158886990648   -0.20848679997970
C          -1.99637878920090    8.33806224308897   -0.64292445620839
C          -1.59151799381327    9.58721054087280   -0.22017257411124
S          -0.13387198463977    9.46834362515846    0.73167061280947
C          -0.10344457788359    7.74666923085508    0.56508857666727
C          -2.22464147582393   10.85134789266858   -0.47859482139124
C          -1.55108679945468   12.05936810796353   -0.35545356655506
C          -2.13246769652310   13.29554386941991   -0.62908583703441
C          -3.44982300548353   13.43484916374480   -1.04748982848534
C          -4.18528317963555   12.21721007738598   -1.15313219888132
C          -3.59274230537818   10.95743533030353   -0.87516772399641
N          -5.47885557898993   12.29553224830576   -1.52085815479505
C          -6.18641038334263   11.19257899408906   -1.60487061743098
C          -5.58722054121923    9.93304603824342   -1.30912310538171
N          -4.34397022603614    9.83832024347026   -0.96016577526183
F          -0.25440164142359   12.08384588750255    0.01543936547975
F          -1.33214318902374   14.36729184351717   -0.47518601841945
O          -7.46226545307733   11.20031351959410   -1.94417429132544
C          -8.07870974497474   12.46395143606584   -2.19684936774482
C          -9.55776579489627   12.23335546895474   -2.43973089195153
C          -3.51464509180660   15.96376032534235   -1.29899495867836
C          -4.37585137687446   16.96531496906374   -1.74109612763514
C          -5.59881109767588   16.48691468328266   -2.15623360388856
S          -5.67973943655228   14.75601173356617   -1.97058936156449
C          -4.05688778492687   14.69488197096035   -1.37320249108487
C          -6.70247966340856   17.23975615653285   -2.69771560466522
C          -8.00862289973845   16.77720422892507   -2.63712844496624
C          -9.08599717952242   17.50087183736813   -3.16406008842721
C          -8.91022806302034   18.71125292758811   -3.77540749582866
C          -7.60626729599460   19.22325806575666   -3.87363195721029
C          -6.50394341591875   18.49750103207424   -3.34551514547106
N          -7.42559085352639   20.41479353709754   -4.48586269492547
C          -6.20149306644988   20.87086722402193   -4.58885985024793
C          -5.09277992728002   20.12801313594928   -4.08618107230145
N          -5.25285610884282   18.98805158716442   -3.48973298390910
F          -8.29383384207145   15.60477697442941   -2.03486908199703
F         -10.31827579869402   16.97639108175394   -3.05414106957801
O          -5.95957799035977   22.03538346824207   -5.17812963033163
C          -7.09227059682630   22.73986959182434   -5.68529248678938
C          -6.59984344151236   24.01578570583408   -6.34242958955292
H           6.46294898042564    4.07518317241783    5.37576940144013
H           4.85498565204257    5.97491574410666    4.62376140597645
H           6.08000397682628    1.89004364048332    3.97698065156983
H           4.67411444893385    9.27142443367689    3.95323140259668
H           0.90604466848958   11.31523149568490    2.63330483673723
H           1.91699698039702   11.40895083456410    1.18535018377704
H           2.09489747017378   13.29116575228623    3.59895210995226
H           1.40664209454554   13.68486447110016    2.01475397434374
H           3.13859097792039   13.36558454271188    2.17676931288249
H          -1.34207229604373    6.28337907742676   -0.45834626752512
H          -2.86553983006495    8.18184492537853   -1.25207874522592
H          -6.16968297813828    9.02494347176566   -1.36200526610515
H          -7.60028405921566   12.92587577829751   -3.06620544441845
H          -7.91732963210577   13.11972356289722   -1.33660210368021
H          -9.70623814592128   11.60181841768181   -3.31136149664527
H         -10.04396781903116   13.18999632151273   -2.60271205503798
H         -10.00799753035117   11.74882348453246   -1.57770254941608
H          -2.52563379919490   16.17301562480360   -0.93871309567762
H          -4.12010208367019   18.00738671851891   -1.75507790696431
H          -9.74105797111639   19.26640211742851   -4.17599751634770
H          -4.08569704659713   20.50167535848306   -4.20035405467922
H          -7.77699663625844   22.95380575057008   -4.85691675330296
H          -7.61754849553224   22.09732467342734   -6.40078573954964
H          -6.07639193727047   24.63284062790628   -5.61739910253472
H          -7.44416012253733   24.57166229626099   -6.73905179663410
H          -5.91683991917518   23.77933137731574   -7.15360658697755
