86
 SCF done       -145.791778698750          0.000311543568
C          -5.93011611974381    1.40823185115351   -4.59789213834319
C          -4.99844028565270    2.00834013102310   -3.73182999199710
C          -5.14493379859673    3.36785868252021   -3.62623725688437
S          -6.47212493947247    3.90666573725537   -4.63145931842614
C          -6.78732922024496    2.30499249398114   -5.15337995193783
C          -4.39022219948391    4.32827030959991   -2.86040016654978
C          -4.62236267070650    5.68695499347800   -3.01859458718875
C          -3.90162592906973    6.64670758351675   -2.32746887257550
C          -2.89474169063299    6.31545208719169   -1.43286323765532
C          -2.65219862524194    4.93101222692874   -1.20681207507790
C          -3.39236457559873    3.94469845635178   -1.91772458825016
N          -1.73795240924760    4.55787669570871   -0.28485762941808
C          -1.54879434737184    3.28168778797196   -0.06741817977720
C          -2.26971080900465    2.29788739137038   -0.79732649884577
N          -3.15518565025156    2.63437937860229   -1.68209823969091
O          -0.67905879649541    2.86751710260607    0.85439191050968
C           0.01263265237096    3.87608664305120    1.58539069105530
C           0.74750420879175    3.20928496143333    2.73385653206904
C          -0.90911856601227    7.27766497498048   -0.16020940190259
C          -0.46376253209375    8.49699191191810    0.35639248570679
C          -1.34650739397339    9.53445575501654    0.16799837005863
S          -2.76214195866775    8.96995363170732   -0.68045529103612
C          -2.14080249282094    7.34573290556679   -0.76630772351159
C          -1.25151210959150   10.91253376393581    0.56965175075194
C          -2.37670995044846   11.72508338921944    0.56433435706826
C          -2.33114437330300   13.04641669773142    0.97252432163861
C          -1.16025829251422   13.65426857457888    1.40602310346403
C           0.02834642759990   12.86904302186520    1.38224529785571
C          -0.02090201999063   11.50589361238665    0.97497041047462
N           1.21107559564564   13.42919218002889    1.71969100398750
C           2.29350022386071   12.69591069156583    1.66291015916199
C           2.23749641829678   11.32997473790494    1.27433101719567
N           1.11471010613705   10.77297393538488    0.94377721959756
O           3.48699644505277   13.21198398697496    1.95849491446281
C           3.52417034569217   14.58905820403129    2.32117389613949
C           4.97784042642964   15.01904558896735    2.39741471212385
C          -0.22764784942257   15.74634066545769    2.52912210239808
C          -0.60275417099391   17.06494092729572    2.80159522307345
C          -1.85384220157196   17.39291509704604    2.33736014879863
S          -2.57780415702523   16.01843872344767    1.54629797040759
C          -1.17717247341464   15.02519468918122    1.84525243640551
C          -2.58294174322775   18.63251347016008    2.44107071981466
C          -3.93415623163888   18.67407101100125    2.13405546722473
C          -4.68344528932769   19.84536679167778    2.23166309901951
C          -4.10304649084681   21.01801781018832    2.63961785823450
C          -2.73410607414464   21.03400254405958    2.95208367009490
C          -1.95887593633535   19.84601422978085    2.85457652466674
N          -2.17054321493243   22.20213422152026    3.34317636176308
C          -0.89173394046115   22.20024328220691    3.61663130131764
C          -0.11104248756367   21.01416603261198    3.50267678828348
N          -0.63624487155064   19.88633252510868    3.13595778333364
O          -0.27725324556961   23.31737910843126    4.00646801079404
C          -1.09088217847695   24.48331299224943    4.10155396655281
C          -0.21019728818985   25.64093862158239    4.53470391848467
H          -5.96177823404133    0.35222791770394   -4.79990033319739
H          -4.24023744235461    1.47040673069331   -3.19624630674950
H          -7.58947504541778    2.12610652523058   -5.84187684906642
H          -5.38268811122304    6.00985147238022   -3.71483721697624
H          -4.11809456398845    7.69068408656389   -2.50293951055730
H          -2.09982784366575    1.24511083315518   -0.62273296950136
H          -0.70967017013707    4.61667322679185    1.94700562940326
H           0.71581641677594    4.38235875700664    0.91315769412224
H           0.04064327577023    2.70730098113220    3.38883602840295
H           1.29100900749733    3.95749183255889    3.30335471905193
H           1.44886714238585    2.47268367879103    2.35148654799172
H          -0.34787121938496    6.36499993869101   -0.11030812137954
H           0.47666354747623    8.63130055764095    0.85597047761620
H          -3.32104817326757   11.30709536947090    0.24732868345829
H          -3.24341892447164   13.62536668808796    0.96577785942958
H           3.13458665762050   10.72870581076121    1.23741414696188
H           3.02821391657196   14.71418860326842    3.29148765015733
H           2.97333981769754   15.17224250469751    1.57434240390115
H           5.50832806136377   14.41526009514244    3.12875505730966
H           5.03507498365492   16.06380640186224    2.68834484695946
H           5.45681973009346   14.89195910998519    1.43039174841304
H           0.70804855055248   15.31624466765097    2.82772862477327
H           0.01421003792032   17.77012977363623    3.32546872063913
H          -4.42264488546395   17.76461038266526    1.81526223380855
H          -5.73442157175513   19.81803307207912    1.98463391976633
H          -4.66139001084005   21.93610563442972    2.72841434062775
H           0.94761590727731   21.03360561309492    3.71938079910023
H          -1.89374051900943   24.29905091125027    4.82473007623497
H          -1.55323039752958   24.67522517337176    3.12648682037099
H           0.24475477668955   25.42478844618098    5.49759663045247
H          -0.80736667596682   26.54427820510861    4.61765334095658
H           0.58028071017154   25.80202217840282    3.80665195257643
