86
 SCF done       -158.470661881927          0.000851036576
C          -5.55548671611662    1.09032555985620   -4.75583012245159
C          -4.70765415638204    1.75022235319247   -3.84966722017022
C          -4.84719986681003    3.11555891095759   -3.86549235759225
S          -6.06448103074218    3.58058014250970   -5.03269559710578
C          -6.34480958908298    1.94629223987010   -5.45874894088476
C          -4.16002705384905    4.12773747060186   -3.10477726181590
C          -4.44097851501437    5.46716263709084   -3.32003568321495
C          -3.78367358427980    6.46978622884053   -2.62477741899182
C          -2.79599970186165    6.23469353454375   -1.67989572612876
C          -2.51734044387056    4.86480352326963   -1.40911156420399
C          -3.18231248851208    3.82156750150706   -2.11224686453222
N          -1.63201445029871    4.56952690777466   -0.43416703344737
C          -1.39422885321750    3.31192433540934   -0.15888660783551
C          -2.02423851154492    2.27039109806748   -0.89485640751466
N          -2.88493088217726    2.53434741551351   -1.82769846961611
O          -0.56342828456400    2.97540606862639    0.82359744991234
C           0.02837559290412    4.04112672609237    1.56477638908027
C           0.62238021127406    3.46165085164244    2.83550754480356
F          -4.12378351924734    7.73856272940663   -2.92937998754171
C          -0.80996046575856    7.28510139258543   -0.50678927312337
C          -0.42353500835020    8.49239586349502    0.07806714130688
C          -1.40906103851971    9.45337000758854    0.05684472349620
S          -2.83625673415317    8.84075356741493   -0.72939593265371
C          -2.09332067875271    7.29836957785016   -1.00371056788022
C          -1.39925667500539   10.79891487983598    0.56543337240420
C          -2.58853625277409   11.49682923777552    0.70301566400423
C          -2.61423658851509   12.79429867236190    1.18737807890440
C          -1.48061959652604   13.51033830673164    1.54616570638974
C          -0.24456274403659   12.81541439873357    1.41302557588464
C          -0.20001955559123   11.47544106678561    0.93572434681953
N           0.89434547450458   13.44131978568068    1.77936625869576
C           2.02877443192287   12.79672333136725    1.67230164981104
C           2.07390549757033   11.47047291849757    1.16034843967024
N           0.99053908340260   10.84818568317170    0.81356353636802
O           3.17309989238376   13.36719487047104    2.04061117057566
C           3.09788784946308   14.69951868739317    2.54352468878750
C           4.45076951145701   15.06132536058872    3.12862423000657
F          -3.82586794235628   13.37787074748579    1.28468094949369
C          -0.58819089056754   15.85327436076617    1.93170206852905
C          -0.96997308891076   17.06476404154314    2.51204725154824
C          -2.22146773022839   17.03044279515507    3.08224601052947
S          -2.94047524459433   15.46016023553649    2.87263587155301
C          -1.54258007873198   14.86773931394790    2.03278989120501
C          -2.94752092193832   18.06497429401416    3.77580858729810
C          -4.06604681742097   17.73992069589815    4.52560537261349
C          -4.78296104794463   18.72278792425929    5.20291610910328
C          -4.44538154375138   20.04891922235155    5.16517684801323
C          -3.32653861049198   20.41891091812566    4.40278916811235
C          -2.56344468677810   19.43764388473024    3.71000093635839
N          -2.99631950580332   21.72951979564143    4.33749787127413
C          -1.95791277013215   22.06294551623912    3.61369358246639
C          -1.19092030466762   21.08043919208689    2.92327981156597
N          -1.49360801512503   19.82030991316566    2.97749652195185
O          -1.59286560386960   23.33716650410341    3.49795853884786
C          -2.39965801511162   24.29045813746706    4.18628010346598
C          -1.86396226309002   25.67570814333336    3.87469889558279
F          -5.85421674667362   18.33658379050245    5.92353295018573
H          -5.58103251702692    0.02226652251856   -4.87869802295519
H          -4.01091627916142    1.25360268686369   -3.20233118721887
H          -7.07832590125756    1.71717016420125   -6.20636749395773
H          -5.18011212014956    5.76147154297473   -4.04957296029613
H          -1.80604604644103    1.23368913381163   -0.68423131189080
H          -0.73688229835030    4.79323566759442    1.78429655939520
H           0.80323588347792    4.51176242611832    0.94853491202240
H          -0.15592018090702    2.99244066021103    3.43159071842182
H           1.08520770736066    4.25431355462512    3.41573716816131
H           1.37148946547260    2.71312311096886    2.59207375944125
H          -0.17168571570737    6.42631907607733   -0.58870000038117
H           0.54351082466044    8.67303020005154    0.50717933105575
H          -3.52742720613026   11.03635797073940    0.43589242690375
H           3.01538643822561   10.95193458244214    1.05120902598791
H           2.30470464994330   14.75496877693550    3.29715518754455
H           2.83456051475578   15.37380264588754    1.72016121068631
H           4.70066117531087   14.38542879631739    3.94188307857054
H           4.42437940527222   16.07884064052205    3.50711548310046
H           5.22048421271957   14.98454285030055    2.36545289765722
H           0.34804123035835   15.69559247801362    1.43238656546130
H          -0.36075874914660   17.94829837544993    2.51952389670336
H          -4.39615539766345   16.71498715974276    4.59930059994530
H          -5.01102392651840   20.79898519586599    5.69143027214140
H          -0.33543406908352   21.37066604348948    2.33049770277463
H          -2.36141065996020   24.07798710714528    5.26081591708181
H          -3.43894620405656   24.17928859227163    3.85709279711533
H          -0.82806064376837   25.75680975763239    4.19286319342179
H          -2.45600760154233   26.42175031505855    4.39632468516815
H          -1.91394872183639   25.86542069670928    2.80578331804595
