254
 SCF done       -434.974953437701          0.000711596050
C          16.79003523610085   -6.17263744404901   -3.62082556772630
C          18.15401360121916   -6.29795105105354   -3.93807349216938
C          19.07098983254064   -5.29484835827962   -3.54938962510207
C          18.70232775486170   -4.15005608580116   -2.84755312535642
C          17.33070275324036   -4.00847212235277   -2.56125704673452
C          16.41246521376744   -5.01195342943999   -2.95686200850885
C          18.79765005329379   -7.35366825451343   -4.64949772313530
C          20.12832217520039   -7.17544952856615   -4.76537436753916
S          20.69458715743220   -5.71385733861158   -4.03278016123134
C          16.68036311010632   -2.93693509009413   -1.90319550999060
C          15.33470422927230   -3.11013381068252   -1.76255888940547
S          14.78759545678135   -4.61965642983720   -2.46159093641631
C          15.83899709771808   -7.21578601481039   -3.95528513379010
C          19.68653872379846   -3.17304118162274   -2.42816709349378
C          15.96820254649748   -8.56375427631652   -3.77955778268262
C          14.83871398160495   -9.29151276894090   -4.20607208006865
C          13.85194658592464   -8.50763160099833   -4.71867821202533
S          14.29775860226991   -6.83329640412071   -4.66776008781369
C          20.77694904056836   -2.72093570918215   -3.11667036874070
C          21.54362854464320   -1.78243183294259   -2.39767603020617
C          21.05888987582298   -1.52506108447284   -1.15277419654435
S          19.62014081650295   -2.44107907725591   -0.84789547578232
C          12.51756717307097   -8.91421771139239   -5.24181562961312
C          11.39381384657195   -8.46621161039902   -4.30509602188630
C          21.57755037627648   -0.57983982522317   -0.12400968682397
C          20.60729099859992    0.58030321456703    0.10748398425444
C          14.41707717798378   -2.22213865253400   -1.13575249802141
S          14.96902421578140   -0.75012473589119   -0.40443545420617
C          13.34565491693009   -0.33665129535979    0.09821240061264
C          12.45555480688414   -1.30675592269100   -0.31783251520982
C          13.05203791132148   -2.35969345890598   -1.00648760632516
C          13.13633844862811    0.89436879694687    0.79922357341609
C          14.21875846730441    1.81671221771730    0.87129600376921
C          14.11675065431274    3.09697975014928    1.47587435458439
C          12.92276825438306    3.58554650574761    2.07429059216666
C          11.89301487550257    2.64756746343216    2.06018241647436
C          11.99280390149906    1.35896617159256    1.44870002469470
C          10.56187288173576    2.72936996436528    2.69929258843728
N           9.94021242563538    1.52461967923754    2.44506752255396
C          10.71618273892181    0.65662399561051    1.70460201824257
C           8.60515664473763    1.20716623235926    2.90092553464623
C           7.55797198436838    1.62334174113852    1.87401751438047
O          10.34167961264901   -0.45369235668087    1.40255425030012
O          10.04752038601594    3.60526271289012    3.35656227508289
N          15.46915493217734    1.69727174533350    0.41107379006932
N          16.04758872562302    2.82184626050408    0.72446141577419
N          15.30669643756942    3.69283248873144    1.34953265344787
C          17.42511612260007    3.08002180161488    0.41749434969431
C          18.23287612561742    3.24038461883582    1.69993148609474
C          12.92076282468070    4.92102864550208    2.59176394621845
S          14.44667674124285    5.74892628338631    2.80185703077992
C          13.64499915881160    7.17319153238886    3.38227520318449
C          12.27641407010581    7.00734469908759    3.37794172963065
C          11.87370434001878    5.74962331971339    2.93838484986750
C          17.41777136938029   10.32078273562533    4.39009429694843
C          16.11349978741597    9.79773147906819    4.26855484712885
C          14.99761936073396   10.58031119631415    4.65451458379084
C          15.10273323519454   11.86638992698586    5.17021092925934
C          16.40879469532822   12.36565279556664    5.34090256478267
C          17.52753153458814   11.58633942411388    4.95556889199534
C          15.72131986326744    8.51953901877366    3.80106635895070
C          14.36974473543638    8.32891667347533    3.78509716889296
S          13.50106917323212    9.73548743911420    4.36741915416417
C          16.79546695244420   13.60528142419145    5.90071840672874
C          18.14699468923109   13.80129916223938    5.92899217409739
S          19.01806962289055   12.44095093427300    5.25549316512472
C          18.57071054035382    9.57730461510411    3.92496488844486
C          13.92214314885865   12.64039602599348    5.49775284011615
C          18.69457700114008    8.83813426317977    2.78165347916544
C          19.97129729345698    8.26292358857690    2.62505956535644
C          20.82331538884239    8.55038113012388    3.64650621634263
S          20.05720522572289    9.55738394080946    4.83063325913877
C          12.77248546249409   12.21243473180480    6.09917793594668
C          11.79867417035337   13.22264253494467    6.22710257802939
C          12.18603868094269   14.42001709575727    5.71022366764543
S          13.79072303717465   14.32326557920771    5.06273368657974
C          22.24932586153986    8.15109544212530    3.81191981320330
C          23.18060552970626    9.35847192454859    3.68700228951118
C          11.43858906364588   15.70842251760474    5.68282311398637
C          12.07796134880721   16.74654914794408    6.60700220769769
C          18.83672411717529   14.93243856586133    6.45172549061530
S          20.56556903262440   14.99506711788654    6.53787517334550
C          20.51778818771568   16.56310577797261    7.30201342311869
C          19.21443756046004   16.99668157162855    7.43095295003130
C          18.27393244421875   16.08831648411703    6.95588357243239
C          21.74853659524900   17.20511632411589    7.65294599929120
C          22.95120922277682   16.74492075525220    7.05127656530724
C          24.21694859703418   17.34770852653671    7.27863761367767
C          24.40241003459588   18.47376184306876    8.12879502400166
C          23.22919986045335   18.86258240323408    8.77436786262705
C          21.95754942525772   18.25510849318796    8.54225558654209
C          23.04167354946560   19.86635766467598    9.84497290732529
N          21.70727074366157   19.81278803101068   10.19375239076934
C          20.99008864559107   18.88597096311044    9.46489586994438
C          21.11831339196578   20.64925177522237   11.21551704475736
C          20.60626863463293   21.95976676679978   10.62827431058340
O          19.81177431973523   18.67902121054751    9.64390723906989
O          23.82976840747057   20.60065734204306   10.39643833291114
N          23.13947686581663   15.73321044776193    6.19867427057721
N          24.41949648264082   15.74000654594003    5.95648693085099
N          25.11349611566088   16.66676201056405    6.55540439827494
C          25.02734440965717   14.78030454705468    5.07878926200569
C          24.65485361852035   13.36514866941650    5.50193236621603
C          25.70657797444558   19.05751462314953    8.21680731431366
S          27.07822600220708   18.19558955487551    7.56340242014662
C          28.15737269768871   19.47362948133254    8.01651155692331
C          27.47014196849083   20.51345139717998    8.61146278874921
C          26.10404670511723   20.27977242180222    8.72035814110093
C          33.01396184529510   20.64437923897711    8.15964412431744
C          31.82726277988647   19.95162259855837    7.84861940354701
C          31.87369676243479   18.76159873057323    7.08233741083831
C          33.05524575388181   18.21885867461458    6.58723561093353
C          34.23865745715116   18.93545925794704    6.86280010330317
C          34.18863016726129   20.12377866420313    7.63373824408255
C          30.50504235540113   20.29820375200021    8.21198170219632
C          29.56240561987932   19.40305995495111    7.79137611530846
S          30.27807510843547   18.07940477093248    6.89485903218623
C          35.56035003552807   18.63543979175624    6.45623711121890
C          36.49443997274260   19.51978005266893    6.91354199891168
S          35.77749131503554   20.79980780246242    7.86876236809490
C          32.99652596224242   21.81967764359629    9.00746886057175
C          33.05533346868662   16.97737742468655    5.84023408427524
C          32.30848739502639   22.00816960300401   10.17298970106035
C          32.53064375117755   23.27309107866588   10.75271105100540
C          33.37606825066161   24.05808382163410   10.03108798863509
S          33.93359563314741   23.23269838069119    8.61284997985126
C          32.14037168194566   16.54750106892016    4.92041358119755
C          32.42755351444658   15.27036191235933    4.39941384311322
C          33.54833997438939   14.70809765874708    4.92736012740992
S          34.28446130502834   15.76659701330033    6.08475006437575
C          33.86723793595714   25.42911358966615   10.34406312375367
C          35.32748938793173   25.40031035615858   10.80024556676227
C          34.17533688295497   13.39528987965940    4.60496330769551
C          35.53485229215677   13.57698021715237    3.92736817182636
C          37.89928027810316   19.48340134770668    6.69599130299309
S          38.62903700586395   18.20149075748359    5.78453345537527
C          40.22523399265454   18.87632730261934    6.02570071851229
C          40.14469238545697   20.03937114121373    6.76549689852967
C          38.84786400603017   20.37954755438015    7.14004865678871
C          41.35196944363710   18.20625922832784    5.44808334456685
C          41.09871597787468   17.10645112068971    4.57893961992922
C          42.11912190243894   16.38026063776694    3.90853427852466
C          43.49897759916073   16.68612306593742    4.04475446758095
C          43.73702947145053   17.72680721995062    4.93125991048416
C          42.71410637565457   18.46230020380573    5.60764177650286
C          45.04227506822796   18.22634392799237    5.41364021226300
N          44.75305873487677   19.22598118141550    6.31936914203976
C          43.39823981594875   19.43411196917963    6.48886412675549
C          45.76493000173869   19.95020047061783    7.05592274599763
C          46.10103219779128   19.24910432357360    8.36730236337642
O          42.96234190308678   20.27444529851813    7.24299620572368
O          46.16913328835415   17.88264329536185    5.14245122693515
N          39.93046816804909   16.56165394207331    4.22173916130688
N          40.24950302991180   15.59764329134833    3.40474017363291
N          41.52053443054636   15.43744468382824    3.17233039269269
C          39.25996108915602   14.73854671885338    2.82130292644989
C          39.36397552368484   13.33749141212162    3.41324650957838
C          44.45600970403827   15.92049088141154    3.29365370111991
S          44.01246475009392   14.32315957285843    2.74542885619757
C          45.53223521784746   14.12152935297435    1.98428097942194
C          46.32525511823075   15.22056556580793    2.11263154303070
C          45.71703523189235   16.24361028758908    2.85744574690962
H          18.26947703913028   -8.19190926319201   -5.06524201011393
H          20.84070073327738   -7.81197928965387   -5.25273564461689
H          17.17592204164968   -2.05211417594289   -1.54840144519534
H          16.82912920458525   -9.01640804967800   -3.32014941823968
H          14.76371739211707  -10.36245403313672   -4.13454400706480
H          21.00472511441288   -3.02171503629072   -4.12313881967465
H          22.42833954168894   -1.31594235755687   -2.79382798223064
H          12.49877144817211  -10.00109583144020   -5.34892961187026
H          12.35809136048928   -8.47038143182086   -6.22828260417404
H          11.52482723373558   -8.90758362416319   -3.31952040701349
H          10.42837574185063   -8.77330880761340   -4.69936848847673
H          11.40075310026314   -7.38355759608257   -4.20173914597139
H          22.54358753924643   -0.19481725761575   -0.45736711745674
H          21.72926076832204   -1.11038711898211    0.81986998058835
H          20.45377843366882    1.13342301167961   -0.81684592399444
H          21.00344721431341    1.25854586477254    0.85924528936072
H          19.64698807432760    0.20092668602794    0.44980966329372
H          11.40286434505300   -1.25655770627840   -0.11930463133349
H          12.51268073081494   -3.20255918593446   -1.40168628809694
H           8.44827792726678    1.73932184041567    3.84224097514369
H           8.56634561773124    0.12824276854848    3.06877244807773
H           7.60875164375154    2.69576220867057    1.70022220308247
H           6.56546966878031    1.37404961251599    2.23856294734935
H           7.72744699367533    1.10335138561121    0.93396839840394
H          17.47900521006718    3.99780601941688   -0.17464602570911
H          17.77816640937302    2.23483699565007   -0.17510287734894
H          17.81469924680243    4.04532330382823    2.29910103533598
H          19.26482550983378    3.47685247931175    1.45839635620626
H          18.21086154589193    2.32138362610808    2.28026973968305
H          11.59741900842782    7.78142988782384    3.68956303337776
H          10.84619983479219    5.44848602062132    2.88130666653279
H          16.41109398796007    7.74905624936553    3.50831232997696
H          16.09689666662212   14.32015678423850    6.29173707862159
H          17.91030296765697    8.74773999214309    2.05154614723067
H          20.24706562043575    7.65770286146078    1.77915477439721
H          12.63982557023853   11.21342805296596    6.47314098071114
H          10.83899449876963   13.06249612494353    6.68581616199081
H          22.49810065576282    7.41029135272959    3.04892012063910
H          22.39138881571690    7.69176693329916    4.79357894859088
H          23.06534845495415    9.82465921308752    2.71103352928382
H          24.21646589567576    9.05059033433773    3.80693191222555
H          22.94345152604558   10.09480962749122    4.45149482607433
H          10.40869616340392   15.52071054589007    5.99411663122699
H          11.42084193407454   16.10203521897128    4.66287144826072
H          12.10205950960837   16.37867296460444    7.63040613723510
H          11.51025550267187   17.67335968021066    6.58354376949401
H          13.09741638623518   16.95512973308172    6.28973929186551
H          18.95206188230613   17.94255106147291    7.86270788599911
H          17.21469183716653   16.26712968184113    6.97924790633509
H          21.89097690163440   20.84307744296022   11.96332284101914
H          20.29626859295247   20.08531504332540   11.66278661481539
H          21.42478061483050   22.51038580807752   10.17037196032522
H          20.16971555857134   22.56980947576571   11.41401517452919
H          19.84711552644361   21.76171906399182    9.87508171966294
H          26.10402081768431   14.95188383261550    5.12691082624120
H          24.67318012380257   14.96899568639014    4.06042224652098
H          25.03983388213387   13.15077189111973    6.49577712308542
H          25.07380197521727   12.64808651032082    4.80195757300471
H          23.57299588398004   13.25961874744571    5.51507462502147
H          27.94368409782788   21.41539426429620    8.95334859759982
H          25.42346984434293   20.97969645328408    9.16352545943410
H          30.26388875585362   21.19105616471008    8.75709403737283
H          35.83067894575781   17.80076109390430    5.83604640312593
H          31.69695810278700   21.24695594340049   10.62415160201402
H          32.07583592618921   23.58873192303733   11.67521123406967
H          31.30595676753229   17.14256996099638    4.59664701283634
H          31.81906351561138   14.78560042649025    3.65636947075930
H          33.24274397335583   25.85592788516632   11.13178343386890
H          33.78207990605478   26.06232369646127    9.45749411598763
H          35.43307490412008   24.78531856393572   11.69110803689675
H          35.67211974667057   26.40589914137232   11.02780854614742
H          35.95702100351526   24.98395266238543   10.01717814116274
H          33.50424046115425   12.83919474578015    3.94693405526006
H          34.31008704769972   12.81648599346124    5.52267406563527
H          35.42387236422400   14.14071823990346    3.00350470421967
H          35.97174514505959   12.60882214036016    3.69556855549853
H          36.21074635572902   14.11770078349750    4.58604153299510
H          41.00592438886056   20.62035833117399    7.03215310329401
H          38.59809491422448   21.25088603440201    7.71963338727060
H          45.37320253065879   20.95177188831801    7.24895423963818
H          46.65037474244782   20.00963975932086    6.41856341169406
H          45.21386090894392   19.17958719987696    8.99252904224688
H          46.86297928876437   19.81063088306777    8.90048003859792
H          46.47611058228382   18.24743577442838    8.17038565892761
H          39.43212655375710   14.70263790599785    1.74239220364112
H          38.28776496462419   15.18749019349234    3.03066161185807
H          40.36305826379224   12.94194213160852    3.24711514327767
H          38.63973611838988   12.68230104662887    2.93861842786914
H          39.16758907574294   13.36166180590980    4.48246569167929
H          45.75147356205789   13.20162557673484    1.47881306695514
H          47.31255262846003   15.29738363310284    1.69383032425805
H          46.18942592097353   17.18407675923946    3.06356358205863
