138
 SCF done       -232.572002516550          0.000489016218
C           1.52911063600143    0.27105744132436    0.04981819691705
C           1.77615073285000   -1.08430759669793    0.37866988553683
C           0.76792092048736   -2.01338613589734    0.61304818626984
C          -0.55649466500879   -1.53910372212683    0.51995028781025
C          -0.80369287904317   -0.18350451723916    0.18891315241046
C           0.20497404105078    0.74547801260723   -0.03433546315387
C          -1.75619948317272   -2.24778353004216    0.76180590093334
C          -2.88373839090417   -1.49122080225109    0.60676408553172
S          -2.51069613576551    0.15856746860543    0.15866622495477
C           2.72654486264205    0.97825100546156   -0.21681290960664
C           3.85312650482273    0.21972710076728   -0.08755265729828
S           3.48411539211899   -1.43018866671230    0.37720757928162
C          -0.07400876324864    2.13661303058924   -0.32859756589563
C           1.08596362757863   -3.39597239125024    0.90760061626425
C          -4.23378655701821   -1.91587075016317    0.76285412114113
C           5.20634422053919    0.61802566860989   -0.26415137244196
C           6.33133133760858   -0.16600954591622   -0.16816622001505
C           7.53449475066473    0.52069032130985   -0.37844411292472
C           7.32599066703964    1.86788917210069   -0.64020763561390
S           5.62416467963869    2.26350666344475   -0.62766759073577
S          -5.56386504694992   -0.85551099262756    0.42741118986179
C          -6.71526437242571   -2.10372443536871    0.82880962220242
C          -6.07617368474093   -3.27670347321595    1.20953275867740
C          -4.68202943119778   -3.15431547797929    1.16437039286934
C           0.55458111498892    3.24215728925954    0.16924312033101
C           0.01470445601093    4.44500864047427   -0.33383554502496
C          -1.00866574701694    4.27703571997915   -1.22087239809062
S          -1.34008703272332    2.59292198515963   -1.43300406839422
C           2.11653425452743   -3.87578889921680    1.66464044330996
C           2.16802920189674   -5.28597441270266    1.68736500260281
C           1.20444196738279   -5.90028829509226    0.94239139851245
S           0.18472034835308   -4.71262482631063    0.20544570097426
C          -1.83068940738495    5.31293688777359   -1.90400831154211
C          -3.13897399477571    5.55662751330661   -1.14775555408129
C           0.93941265327763   -7.35506319768807    0.77081468015599
C          -0.21889967128798   -7.81418108831350    1.65951387915918
C          -8.09990243857624   -1.81143349291545    0.71228309142800
C           8.25785297281739    2.91021736485731   -0.88784730787279
C          11.58650258900747    4.89235192423134   -1.38192985464148
C         -11.98812251577227   -2.16041998482659    0.72813642803927
C          12.83817114674268    4.28247763564438   -1.39576621685748
C          13.87749707133403    5.20190240550118   -1.54547031320249
C          13.47133417440097    6.51897443388835   -1.65349995590118
S          11.73061505997206    6.61660261459349   -1.57017764076957
S         -13.12375702663293   -1.03492699198728    0.04453678230224
C         -14.47982147725722   -2.07279823181077    0.43977043995268
C         -14.02670885373222   -3.20848830171508    1.08204587383530
C         -12.64308188781825   -3.27183457727297    1.25149420154972
C          14.21764707640025    7.70656303693553   -1.80591102142250
C          15.57292336497400    7.84492091767771   -1.86462124808906
C          16.49557993548595    6.78984209875440   -1.78379524371143
C          16.12917172514000    9.21031478784559   -2.02236748445107
O          17.46502743891317    9.19279440647252   -2.03751459092704
O          15.45280854762363   10.20667581689742   -2.11128550339324
C          18.12953786351555   10.44476645426447   -2.19816357655358
C          18.21275827231003   10.84545193494969   -3.66410947043937
C         -15.76256181265876   -1.62346591842539    0.05908539300791
C         -16.99808056903224   -2.20517662076633    0.13602482430110
C         -17.38794209931834   -3.52140340921849    0.68068530384754
C         -18.07337988830000   -1.45481258579435   -0.39250655702834
O         -18.66412758783127   -3.77957816202386    0.36521470691634
O         -16.70057896043117   -4.27272574629954    1.33291251288907
C         -19.21085199100048   -5.01608073900397    0.81554300802350
C         -18.85036052688836   -6.15979184513755   -0.12248402887021
N          17.26064112759155    5.93502841340555   -1.71958505619693
N         -18.92600476507668   -0.82004708739521   -0.82416884416796
C           8.89130313912188   -0.10889070986505   -0.32730504507833
C           8.87442811504025   -1.60068395695502   -0.01930927086899
S           9.97751760989411    2.65686270696468   -0.92581429399749
C          10.28410126828819    4.34128973802643   -1.24386782356721
C           9.09010736231728    5.03503909755377   -1.31442766240591
C           7.96595557195209    4.24147376321295   -1.12039535833691
C          13.10229094191399    2.81923739002945   -1.23256835503352
C          13.19356919653815    2.44127384953480    0.24714331706442
C          -6.80748484529595   -4.51924901645084    1.61291085832285
C          -5.90182682267908   -5.68497256589339    1.98903689721065
C          -8.66313710569369   -0.62725650517483    0.27405593761586
C         -10.05286757643768   -0.64462828127600    0.24772638997214
C         -10.60533251098227   -1.83799084942944    0.67426968225312
S          -9.34488922332351   -2.95657454825521    1.11150591645073
C         -11.99023540051803   -4.44518022303355    1.91108578125668
C         -11.60431792292122   -5.51017749631494    0.88283540593811
Cl          3.36203051852089   -6.14774763216746    2.58019046162045
Cl          0.61311177559904    5.99062751462647    0.13553072900952
H          -1.78587158660219   -3.28120071313137    1.04904036868293
H           2.75916570810131    2.00757545611980   -0.52384985959572
H           6.26351996368574   -1.21552197167776    0.05216003819417
H          -4.00649201359857   -3.94832323387948    1.41893303336032
H           1.34175846776894    3.21022463759570    0.89966728861363
H           2.79722996409772   -3.25723028847592    2.21897210788709
H          -2.05621882737495    4.98714873363209   -2.92138547867225
H          -1.25712775822941    6.24053535881660   -1.95429234889358
H          -3.71607490373163    4.63664901419906   -1.08791070794406
H          -3.73257889813873    6.30981483366212   -1.65901547564364
H          -2.93186852439123    5.90244318843446   -0.13789688041400
H           1.84401174107556   -7.90679678233252    1.03301220531278
H           0.69673804067565   -7.56181381457872   -0.27383496811930
H           0.00963867381594   -7.62421223054980    2.70552791358641
H          -0.39186906510572   -8.87910115302864    1.52892852955897
H          -1.12919871592114   -7.27844677009001    1.39937619512141
H          14.91212539799510    4.91255006917970   -1.57708290746153
H         -14.69703567430855   -3.97299215888505    1.42821795486193
H          13.65374959444549    8.62969708079140   -1.88095192724669
H          19.12367416975256   10.29061697184921   -1.77401701498182
H          17.59156929815518   11.20834175080090   -1.62610107267046
H          18.70137717136238   10.06242382804917   -4.23912783268962
H          18.78244995506158   11.76547562560774   -3.75802933174231
H          17.21398999186020   11.00723560282098   -4.06262171972934
H         -15.75595050816762   -0.64004858408351   -0.40298262025641
H         -20.28985648586594   -4.85238936516097    0.83992092859792
H         -18.84021771558892   -5.22276340007517    1.82548726260531
H         -19.17654075772818   -5.93108736917540   -1.13420626663626
H         -19.33711074515866   -7.07152966140193    0.21154176428510
H         -17.77412279650538   -6.31551498327220   -0.12427877538233
H           9.49017211629264    0.40752572366794    0.43018935940024
H           9.39010167928297    0.05443318254928   -1.28843548700718
H           8.42295408159664   -1.79059261047124    0.95140410356175
H           9.89320670584785   -1.98008604660448   -0.00119203436945
H           8.32084054533835   -2.14723837217847   -0.77896565305026
H           9.05101611708556    6.09332703521806   -1.50310377998866
H           6.95697459213114    4.61331768162023   -1.14092013366033
H          14.04984110561052    2.58290839565536   -1.71979476089517
H          12.31736374683024    2.23409181480196   -1.71477282650817
H          14.00345872667245    2.98822679522244    0.72396536478666
H          13.38431445012971    1.37640239225166    0.35036460931161
H          12.26633017935246    2.67840555610565    0.76308325475815
H          -7.46116071797678   -4.82488483758688    0.78937951630211
H          -7.45834278985098   -4.28327840315655    2.46118701035192
H          -5.27224723983772   -5.97258160374572    1.15043422560204
H          -6.50985426368714   -6.54220213109373    2.26781743298479
H          -5.26933705252298   -5.42697879410774    2.83505863567880
H          -8.06654999228265    0.21729884327386   -0.02198340057200
H         -10.65712908730843    0.18642206907053   -0.07077212146005
H         -12.69730966638963   -4.87668645697049    2.62175747476646
H         -11.10396329331669   -4.12796265185473    2.46333424886615
H         -12.48998239104176   -5.86426955587823    0.36078846307069
H         -11.13040021810284   -6.35400148707517    1.37749305963430
H         -10.91072165690267   -5.10480019116534    0.15009579369517
