138
 SCF done       -232.922114463541          0.000793620697
C           0.89650395818770    1.25767275579299    0.09737039353005
C           1.12989567228114   -0.12760981602440   -0.08727143637774
C           0.11011168394237   -1.06449351053908   -0.19559673470096
C          -1.20685222856049   -0.58121076289714   -0.06121272474318
C          -1.43907998385997    0.80157128545794    0.14024567043426
C          -0.42105245581749    1.74684099085230    0.20351093863397
C          -2.41372559345619   -1.31974861694867   -0.09818382904937
C          -3.53355059774826   -0.55190266517924    0.03630732897895
S          -3.14506111572874    1.14501537271691    0.24061198129596
C           2.10565020808774    1.98844719924544    0.15793387394306
C           3.22262749728094    1.22185164026139   -0.00476667575295
S           2.83397460066829   -0.47167558357247   -0.22136023187965
C          -0.71437513335645    3.15895480074824    0.34421900726336
C           0.36943085937712   -2.46736326774674   -0.45207249699081
C          -4.88933626207163   -0.97914129413223    0.01371423486748
C           4.57036740136483    1.67298909669036   -0.02616622476098
C           5.72258626460108    0.93692672391190   -0.16704978564721
C           6.90002365024806    1.69937661722805   -0.17676627116191
C           6.64140830125811    3.05663173053027   -0.04055220459380
S           4.93028264047736    3.36443029115337    0.10438848987674
S          -5.29783891205476   -2.62618804423810   -0.35587916530564
C          -7.00276947591311   -2.27642049736111   -0.21097672084226
C          -7.21938895229783   -0.94587953698403    0.11918416190072
C          -6.01996594926573   -0.22987415461725    0.23585244082346
C          -1.68292313803745    3.74524429056483    1.10898529781954
C          -1.69831506081873    5.14578251550849    0.96208197025541
C          -0.78142059567762    5.65467852891536    0.09129213140726
S           0.15340197060502    4.36109482740143   -0.57429586527304
C          -0.28275953390621   -3.30063552242233   -1.31565908806851
C           0.25080833310752   -4.60403716222943   -1.29464071941115
C           1.28648537005631   -4.79812231475198   -0.43025539093116
S           1.63963821153606   -3.31464709137753    0.38715013520841
C          -0.52657866384253    7.07760701378972   -0.26803689428335
C           0.88093970723553    7.51736973674446    0.13683195369957
C           2.07577481828774   -6.03825509921463   -0.19088311370921
C           3.51776380210222   -5.88181618408574   -0.67550337177211
C          -7.92356631136213   -3.32990547089659   -0.45352455086293
C           7.51534000450700    4.18135612313498   -0.02466718983201
C           8.55393485791259    7.94596743803176   -0.04348981316513
C         -11.20972027993396   -5.38753665758653   -0.91656331628228
C           7.60578713098695    8.96969649128187   -0.04234786709186
C           8.19491080473707   10.23326398873719   -0.07160652125738
C           9.57838470107368   10.22201589338931   -0.09558220871559
S          10.17084857709194    8.58064633706977   -0.07803582907459
S         -11.31350795330620   -7.03402194509515   -1.46531298822340
C         -13.04892701139954   -6.99655794165386   -1.36308177653143
C         -13.48023853326780   -5.74880280681203   -0.91808447997509
C         -12.46814248558400   -4.83355757818596   -0.66532623802674
C          10.50473030952018   11.28499116948762   -0.13253765693579
C          10.24666697257011   12.62402339703426   -0.16244206225116
C           8.96600571179752   13.19901800306623   -0.16400087786472
C          11.39891965580233   13.55600907015980   -0.20262825872505
O          10.99478009818990   14.82954753230093   -0.20895976870849
O          12.55273701046358   13.19992057777000   -0.21719284806627
C          12.00722995482580   15.83256920412124   -0.26894301035307
C          12.46255504516639   16.07603965182894   -1.70070442410921
C         -13.94220103029146   -8.03652784148757   -1.67472966327993
C         -13.72874614013686   -9.30829597966357   -2.13748715066406
C         -12.42531871669627   -9.90899089941638   -2.42878869447442
C         -14.85679553586380  -10.12285409792159   -2.36734374297306
O         -12.55586928611848  -11.16017767505270   -2.87989159645828
O         -11.35107394869095   -9.36172857150236   -2.27835550600779
C         -11.35986155180901  -11.85744680339466   -3.22186835596852
C         -10.86914182916008  -11.47539772025073   -4.61104782048111
N           7.92356169562394   13.68256620466553   -0.16849621630361
N         -15.79237944898756  -10.76225542985215   -2.54740425956774
C           8.27383043973170    1.12063674156426   -0.33507907557127
C           8.28854606158284   -0.37730540715624   -0.61619729719246
S           6.81011010886500    5.77389296555429   -0.05121697403074
C           8.37368372610331    6.53829609288763   -0.02608838152828
C           9.36704477699148    5.57840748821628    0.00327647106973
C           8.89328274970763    4.26832523646223    0.00575470592150
C           6.12996821015946    8.72160589037669   -0.01071842163882
C           5.28576520718347    9.98903664460824    0.03279731386691
C          -8.58276512633564   -0.36153213175668    0.31933269128315
C          -8.57925101721029    1.11608556397451    0.68986467101756
C          -7.60787744618078   -4.62233271389718   -0.83203451736269
C          -8.71611446252150   -5.43744196066835   -1.02064724662789
C          -9.92358640587383   -4.80311030079003   -0.79027696160228
S          -9.64810650445612   -3.14498077211266   -0.32612029268705
C         -12.67505091979202   -3.43105308347812   -0.18312588882898
C         -14.13321812383075   -3.06167504634765    0.05783348467161
F          -2.56312523532576    5.92463455766288    1.63805480967338
F          -0.23718357773009   -5.58774483218632   -2.07342375582115
H          -2.46082018756354   -2.38853934255907   -0.19932750809020
H           2.16521358376306    3.04818421774427    0.32443113928431
H           5.69291897013420   -0.13284441340839   -0.26403394019575
H          -5.95979429049601    0.81554224490118    0.47720874877802
H          -2.33582923850616    3.21969009714138    1.78009167865624
H          -1.07660366699222   -3.00010180135416   -1.97381885130382
H          -1.27117187259832    7.69634898554326    0.23726801546127
H          -0.64692201197754    7.20920010607090   -1.34700931098951
H           1.01754646622809    7.41276360346893    1.21075742941999
H           1.03841296395374    8.55826384789169   -0.13341202876918
H           1.62728338185487    6.90798647073242   -0.36860348910122
H           1.59180828670202   -6.86124554507655   -0.72098766225549
H           2.07811082871942   -6.27029564361653    0.87733363898088
H           3.53812778265517   -5.66942106829433   -1.74194947526139
H           4.07583993827513   -6.79623897465580   -0.49248640443079
H           4.00417327354285   -5.06308866508255   -0.14969442202684
H           7.63829139238979   11.15061999441559   -0.07574722002754
H         -14.52627902367961   -5.53633985683384   -0.79088263505622
H          11.55499863849484   11.01559586009687   -0.14016554596298
H          12.85436904283445   15.51979454844404    0.35085933166117
H          11.54299105039363   16.72529685293055    0.15467970281443
H          12.93533112833092   15.18091703566385   -2.09791716676320
H          13.17977000184666   16.89149796157186   -1.72101498208413
H          11.61070240959199   16.33392123438824   -2.32548456258161
H         -14.98421227248082   -7.76940421943058   -1.52296269583851
H         -11.63145962589032  -12.91366329005409   -3.17619739188869
H         -10.59124681921055  -11.63492276126050   -2.47383572693761
H         -11.65374635120448  -11.64499318793722   -5.34451719292870
H         -10.00337699808615  -12.07838748863311   -4.86933273784954
H         -10.58597200229343  -10.42568513260160   -4.63077524996174
H           8.84284304031228    1.31494123200262    0.57963338165499
H           8.77736323848792    1.64246979115799   -1.15440004362908
H           7.85805585110324   -0.93294393856171    0.21324353753427
H           9.31421661226346   -0.71241681587306   -0.75260553902850
H           7.73177266514201   -0.60605582419742   -1.52169246970969
H          10.41191375138343    5.83415887813306    0.02495249403694
H           9.54647193266526    3.41862628484713    0.04326281828394
H           5.89687847403900    8.10480196578220    0.86339425854301
H           5.85371948402222    8.13509779346112   -0.89323126378882
H           5.51692603745369   10.57931154429203    0.91591809937698
H           4.23252679432475    9.72088370586322    0.06697349893645
H           5.45450400521380   10.60023299033458   -0.85012858492917
H          -9.09427552609845   -0.92855372358526    1.10409144450456
H          -9.16279403906602   -0.50211076616775   -0.59873568133112
H          -8.04123936596628    1.28063161855985    1.62033859370296
H          -9.60187223304026    1.46102607678748    0.82228818380305
H          -8.11797236126693    1.71159188586262   -0.09425150193360
H          -6.59176806607905   -4.94801266558302   -0.96793853527013
H          -8.66073818692746   -6.46902852706649   -1.31911747068648
H         -12.24638137236358   -2.74179393039472   -0.91791615678225
H         -12.11148870727703   -3.29380979244103    0.74530687475355
H         -14.70983225796059   -3.14047825000685   -0.86060707133203
H         -14.19610151805945   -2.03539233319630    0.41148994058126
H         -14.57690925810388   -3.70892176097995    0.81053600000944
