# ORCA input file
# SCF done       -210.420389800840          0.000861275445
! wb97x-d3 def2-SVP def2/J RIJCOSX Grid4 TightSCF
%maxcore 5000
%tddft
    Mode sTDA
    Ethresh 5.0
    maxcore 5000
end

%pal
  nprocs 6
  end
* xyz 1 2
   C        2.27058        -2.05026         3.46236
   O        3.13695        -1.23559         3.68825
   C        1.09085        -2.37439         4.29408
   C        0.68005        -1.80185         5.46256
   C       -0.50578        -2.26641         6.07571
   C       -1.24711        -3.31632         5.46019
   C       -0.79313        -3.89514         4.25275
   C        0.36176        -3.43370         3.68189
   C        1.08748        -3.86115         2.48872
   C        0.97272        -5.09214         1.89279
   C        1.91477        -5.58964         0.96923
   N        2.68970        -6.04676         0.25549
   C       -0.04214        -6.01993         2.19276
   N       -0.86949        -6.79600         2.37246
   C        2.13375        -2.89540         2.25044
   C        2.88150        -2.61431         1.14251
   C        2.63471        -2.95255        -0.20214
   S        1.01357        -3.38084        -0.75540
   C        1.57882        -3.53688        -2.37508
   C        2.94891        -3.25017        -2.46516
   C        3.54752        -2.90621        -1.25144
   C        4.98768        -2.53553        -1.12259
   C        5.17454        -1.03262        -1.35006
   S        3.58220        -3.41088        -4.08749
   C        2.00681        -3.86835        -4.62854
   C        1.04081        -3.88666        -3.61435
   N       -0.17165        -4.26457        -4.12483
   C       -1.20698        -4.71087        -3.21729
   C       -1.36225        -6.22877        -3.24865
   C       -0.00284        -4.50548        -5.47967
   C        1.36749        -4.27914        -5.80495
   C        1.88944        -4.53822        -7.09171
   N        3.13414        -4.40300        -7.52119
   S        3.20259        -4.90432        -9.05862
   N        1.64565        -5.30884        -9.23612
   C        1.01687        -5.06574        -8.09708
   C       -0.35677        -5.20772        -7.79968
   C       -0.89680        -4.87629        -6.51950
   N       -2.27218        -5.00628        -6.58658
   C       -3.30996        -4.50525        -5.71348
   C       -3.22730        -2.98875        -5.55959
   C       -2.59673        -5.40995        -7.85310
   C       -1.43359        -5.56578        -8.61829
   S       -1.72686        -6.07741       -10.24341
   C       -3.44784        -6.05908        -9.90147
   C       -3.75768        -5.68036        -8.58222
   S       -5.45762        -5.64411        -8.30324
   C       -5.75396        -6.13977        -9.97226
   C       -4.55691        -6.32251       -10.69120
   C       -4.45058        -6.79070       -12.10519
   C       -4.54844        -8.31714       -12.18088
   C       -7.01482        -6.31618       -10.54392
   C       -8.27690        -6.15859       -10.01717
   C       -9.51447        -6.35027       -10.74457
   C       -9.66620        -6.73947       -12.05231
   C      -10.91471        -6.89177       -12.69042
   N      -11.89535        -7.03212       -13.27080
   C       -8.62381        -7.04202       -12.95199
   N       -7.83433        -7.30916       -13.74367
   C      -10.61431        -6.04678        -9.82957
   C      -11.97298        -6.05652       -10.00082
   C      -12.81281        -5.70494        -8.91838
   C      -12.25174        -5.34559        -7.65919
   C      -10.84736        -5.34422        -7.50437
   C      -10.06445        -5.68619        -8.56807
   C       -8.59401        -5.74906        -8.64959
   O       -7.81464        -5.49903        -7.74441
   C       -2.43045        -3.77151         6.07527
   C       -2.85620        -3.21358         7.24784
   C       -2.12200        -2.17630         7.85626
   C       -0.97124        -1.71168         7.28365
   C      -13.10780        -4.99762        -6.59675
   C      -14.21385        -5.70300        -9.06914
   F       -3.98120        -3.64926         7.83127
   F       -2.56396        -1.64624         9.00533
   F      -15.27629        -4.67144        -5.76282
   C      -14.46298        -5.00450        -6.77495
   C      -15.01942        -5.35955        -8.01965
   F      -16.35133        -5.35686        -8.16566
   H        1.25223        -1.00663         5.91569
   H       -1.37435        -4.68493         3.80375
   H        3.73181        -1.96353         1.31995
   H        5.36353        -2.81328        -0.13797
   H        5.55484        -3.08499        -1.87623
   H        4.61881        -0.45875        -0.61188
   H        6.22672        -0.77398        -1.26956
   H        4.82355        -0.75383        -2.34083
   H       -0.89382        -4.40414        -2.21628
   H       -2.14823        -4.20294        -3.42585
   H       -1.61177        -6.58018        -4.24725
   H       -0.43230        -6.70302        -2.94330
   H       -2.14570        -6.53450        -2.56074
   H       -4.26235        -4.76624        -6.18097
   H       -3.27719        -5.01340        -4.74969
   H       -3.36950        -2.51085        -6.52594
   H       -4.00698        -2.64293        -4.88661
   H       -2.26016        -2.68112        -5.16835
   H       -5.22986        -6.34771       -12.72694
   H       -3.48083        -6.47623       -12.49599
   H       -5.50620        -8.66185       -11.79849
   H       -4.45533        -8.63957       -13.21372
   H       -3.75440        -8.77678       -11.59705
   H       -6.97358        -6.61828       -11.58131
   H      -12.43066        -6.32328       -10.93934
   H      -10.40202        -5.07517        -6.55857
   H       -3.00215        -4.56769         5.62450
   H       -0.42066        -0.91714         7.76233
   H      -12.69708        -4.72332        -5.63768
   H      -14.65647        -5.97202       -10.01551
*
