# ORCA input file
# SCF done       -379.739171723699          0.000469237400
! wb97x-d3 def2-SVP def2/J RIJCOSX Grid4 TightSCF
%maxcore 5000
%tddft
    Mode sTDA
    Ethresh 5.0
    maxcore 5000
end

%pal
  nprocs 6
  end
* xyz 1 2
   C        5.37438        -1.61847         1.45235
   C        4.05607        -1.40075         0.98021
   C        3.06539        -2.32358         1.20938
   C        3.41301        -3.46765         1.92749
   C        4.72696        -3.67870         2.41100
   C        5.72303        -2.76307         2.16453
   C        2.63466        -4.59136         2.32970
   C        3.41635        -5.50731         3.03893
   C        4.82226        -4.98338         3.18343
   C        6.13559        -0.46456         1.09856
   C        5.34261         0.48000         0.46769
   C        3.94857        -0.05928         0.27273
   S        1.01546        -5.09809         2.17113
   C        1.37422        -6.57492         3.08417
   C        2.71546        -6.61562         3.46828
   S        7.75333         0.07038         1.30207
   C        7.34702         1.60588         0.55672
   C        6.02440         1.65601         0.16412
   C        5.88346        -5.85788         2.54417
   C        5.07985        -4.79109         4.66945
   C        2.86237         0.76207         0.93857
   C        3.71758        -0.18090        -1.22402
   C        0.29674        -7.44771         3.27305
   C        0.18378        -8.64330         3.94596
   C        1.20503        -9.35498         4.73575
   C        0.51300       -10.52759         5.31873
   C       -0.82427       -10.54775         4.89650
   C       -1.05304        -9.39962         4.01765
   C        1.03668       -11.49041         6.15807
   C        0.18900       -12.49877         6.58608
   C       -1.14320       -12.52692         6.17471
   C       -1.66686       -11.56018         5.32922
   O        2.37666        -9.08636         4.90842
   C       -2.23723        -9.14319         3.37430
   C       -2.50354        -8.08270         2.48193
   C       -3.39432        -9.94129         3.50223
   N       -4.37244       -10.53961         3.55804
   N       -2.82223        -7.26773         1.73718
   C        8.33819         2.63711         0.46343
   C        7.97668         3.99717         0.27064
   C        8.97543         5.03554         0.28121
   C       10.35213         4.72252         0.43720
   C       10.66180         3.37671         0.56785
   C        9.69408         2.37831         0.59894
   N        6.75164         4.49096         0.10103
   S        6.84389         6.08960        -0.03823
   N        8.43657         6.24165         0.11343
   C       14.69115         7.73327         0.59634
   C       14.33125         9.05822         0.94684
   C       15.29111        10.02508         1.12071
   C       16.62047         9.64232         0.94635
   C       16.97829         8.32441         0.57221
   C       16.01645         7.35904         0.38981
   C       17.83471        10.36873         1.11189
   C       18.93666         9.57528         0.80360
   C       18.48430         8.19107         0.41756
   C       13.48089         6.98009         0.53062
   C       12.38055         7.78538         0.77433
   C       12.82337         9.19176         1.08667
   S       18.27605        11.93160         1.64504
   C       19.98015        11.52199         1.47026
   C       20.14285        10.22880         0.97862
   S       13.04604         5.33959         0.27481
   C       11.35313         5.74678         0.48715
   C       11.17317         7.09254         0.73844
   C       19.12811         7.21178         1.38247
   C       18.76710         7.83223        -1.03030
   C       12.33298        10.23068         0.09669
   C       12.36410         9.50843         2.49962
   C       21.01530        12.43664         1.73175
   C       20.99276        13.58369         2.47638
   C       22.00404        14.63801         2.23386
   C       21.47856        15.83988         2.92634
   C       20.31125        15.50016         3.63272
   C       20.07672        14.06346         3.48386
   C       21.97977        17.12629         2.92353
   C       21.28413        18.08972         3.63695
   C       20.11950        17.76148         4.33080
   C       19.62084        16.46715         4.34404
   O       23.01383        14.54929         1.57349
   C       19.34727        13.29243         4.35230
   C       19.41935        11.88372         4.38225
   C       18.52877        13.81469         5.37251
   N       17.83026        14.18965         6.20282
   N       19.50105        10.74275         4.47883
   F        0.65202       -13.45431         7.40297
   F       -1.94213       -13.51101         6.60549
   F       19.46221        18.71683         4.99931
   F       21.73365        19.35128         3.65852
   C       18.97438         8.81566        -1.98710
   C       19.18630         8.47403        -3.31027
   C       19.18593         7.14604        -3.71427
   C       18.96772         6.16586        -2.75448
   C       18.75615         6.50178        -1.43107
   C       20.42829         6.78953         1.14174
   C       21.07545         5.92340         2.01019
   C       20.40345         5.48904         3.14517
   C       19.11692         5.92380         3.40495
   C       18.47734         6.78464         2.53024
   C       13.20601         9.38297         3.59473
   C       12.73720         9.63973         4.87080
   C       11.41824        10.01319         5.08704
   C       10.57570        10.12330         3.98769
   C       11.03893         9.87087         2.71135
   C       12.34593        11.57681         0.44092
   C       11.93060        12.53574        -0.46270
   C       11.49308        12.17866        -1.73183
   C       11.49362        10.83366        -2.07449
   C       11.91078         9.86984        -1.17465
   C        1.53950         0.61610         0.53883
   C        0.53515         1.33015         1.16317
   C        0.82236         2.20644         2.20208
   C        2.14391         2.34018         2.60468
   C        3.15293         1.62567         1.98484
   C        3.87753        -1.38209        -1.89869
   C        3.69418        -1.44425        -3.26863
   C        3.36008        -0.31216        -3.99829
   C        3.21600         0.89128        -3.31883
   C        3.39640         0.95924        -1.95135
   C        7.21411        -5.71576         2.91819
   C        8.19678        -6.47760         2.31645
   C        7.88006        -7.39680         1.32424
   C        6.55056        -7.52811         0.94811
   C        5.56336        -6.76460         1.54420
   C        5.38471        -5.90199         5.44749
   C        5.58183        -5.77161         6.80793
   C        5.47159        -4.53368         7.42942
   C        5.15573        -3.43075         6.64896
   C        4.95477        -3.55501         5.28551
   C       19.46322         6.77643        -5.14279
   C       20.96559         6.59001        -5.36503
   C       22.45631         5.42929         1.68714
   C       22.38452         4.26026         0.70262
   C       10.92809        10.33910         6.46810
   C       11.15276        11.82079         6.77713
   C       11.07711        13.22675        -2.72338
   C       12.28679        13.71777        -3.52117
   C        8.94430        -8.26318         0.71539
   C        9.14895        -9.52471         1.55683
   C        5.73500        -4.38582         8.90017
   C        7.21835        -4.10665         9.15124
   C        3.11016        -0.39537        -5.47640
   C        1.63578        -0.69830        -5.75162
   C       -0.27760         2.95022         2.90297
   C       -0.85374         2.10431         4.04033
   H        2.05484        -2.17812         0.86031
   H        6.73199        -2.90711         2.51853
   H        3.12323        -7.43354         4.03183
   H        5.60032         2.52239        -0.30697
   H       -0.61406        -7.09287         2.80561
   H        2.06770       -11.46135         6.47248
   H       -2.70324       -11.62995         5.04377
   H       11.69908         3.09554         0.67747
   H       10.01095         1.35511         0.73974
   H       15.04074        11.03798         1.39574
   H       16.26722         6.34689         0.11280
   H       21.11332         9.80020         0.80608
   H       10.20102         7.52035         0.89396
   H       21.94871        12.24903         1.20878
   H       22.88111        17.37920         2.38850
   H       18.71659        16.25813         4.89219
   H       18.97284         9.85731        -1.70013
   H       19.35056         9.25360        -4.04055
   H       18.96002         5.12552        -3.04753
   H       18.59449         5.72301        -0.69995
   H       20.94321         7.13304         0.25507
   H       20.89388         4.81365         3.83123
   H       18.60531         5.59211         4.29626
   H       17.47430         7.12212         2.74371
   H       14.23559         9.08687         3.45692
   H       13.40957         9.54460         5.71143
   H        9.54323        10.40777         4.13353
   H       10.37057         9.96491         1.86765
   H       12.66657        11.87472         1.42881
   H       11.94040        13.57776        -0.17587
   H       11.15906        10.53360        -3.05744
   H       11.89927         8.82918        -1.46402
   H        1.29610        -0.04895        -0.27733
   H       -0.48752         1.20889         0.83536
   H        2.38962         3.01495         3.41249
   H        4.17412         1.74846         2.31512
   H        4.14436        -2.27743        -1.35629
   H        3.81651        -2.38994        -3.77741
   H        2.96198         1.78659        -3.86830
   H        3.27739         1.90276        -1.43882
   H        7.48034        -5.01488         3.69623
   H        9.22644        -6.35688         2.62197
   H        6.28187        -8.23588         0.17684
   H        4.53633        -6.88249         1.23039
   H        5.47358        -6.87248         4.98232
   H        5.81923        -6.64534         7.39745
   H        5.05911        -2.45905         7.11234
   H        4.70048        -2.68092         4.70371
   H       18.94479         5.84856        -5.39252
   H       19.09660         7.56236        -5.80614
   H       21.34821         5.80052        -4.72195
   H       21.16708         6.32331        -6.39981
   H       21.49918         7.50901        -5.13291
   H       23.04391         6.23577         1.24322
   H       22.95812         5.10366         2.59999
   H       21.89699         4.57144        -0.21897
   H       23.38276         3.90080         0.46391
   H       21.81345         3.43987         1.13182
   H        9.86289        10.11205         6.54664
   H       11.46239         9.73389         7.20316
   H       10.61894        12.44162         6.06088
   H       10.79737        12.05928         7.77678
   H       12.21134        12.06308         6.71775
   H       10.33654        12.81324        -3.41085
   H       10.62435        14.07184        -2.20081
   H       12.74623        12.89089        -4.05829
   H       11.98638        14.47603        -4.24050
   H       13.03106        14.14674        -2.85395
   H        8.65585        -8.54899        -0.29807
   H        9.88488        -7.71109         0.66070
   H        8.22468       -10.09527         1.61320
   H        9.92009       -10.15404         1.11881
   H        9.44888        -9.26008         2.56834
   H        5.14098        -3.56259         9.30222
   H        5.44811        -5.30125         9.42126
   H        7.52103        -3.19064         8.64858
   H        7.41076        -3.99866        10.21609
   H        7.82661        -4.92346         8.76909
   H        3.37708         0.55090        -5.95140
   H        3.72700        -1.18341        -5.91299
   H        1.00465         0.08169        -5.33121
   H        1.45162        -0.75563        -6.82183
   H        1.35395        -1.64644        -5.29916
   H        0.10881         3.88654         3.31050
   H       -1.07332         3.18825         2.19412
   H       -0.07836         1.86725         4.76551
   H       -1.65200         2.64111         4.54747
   H       -1.25460         1.17076         3.65201
*
