# ORCA input file
# SCF done       -276.453410142906          0.000249899988
! wb97x-d3 def2-SVP def2/J RIJCOSX Grid4 TightSCF
%maxcore 5000
%tddft
    Mode sTDA
    Ethresh 5.0
    maxcore 5000
end

%pal
  nprocs 6
  end
* xyz 1 2
   C        2.50234        -1.93088        -0.77390
   C        2.79092        -1.28220         0.44969
   C        1.93413        -0.32938         0.99470
   C        0.76987        -0.06548         0.31263
   C        0.46938        -0.73120        -0.89902
   C        1.33804        -1.66658        -1.45612
   C        3.60175        -2.91828        -1.13570
   C        4.50293        -2.79554         0.06795
   C        4.02094        -1.82414         0.93405
   C        5.68021        -3.38385         0.50938
   C        6.09180        -2.87196         1.73062
   S        5.01283        -1.62310         2.31779
   C       -0.33292         0.91501         0.68092
   C       -1.30600         0.68645        -0.44808
   C       -0.81019        -0.26254        -1.33065
   C       -2.56903         1.14755        -0.79431
   C       -3.03777         0.55542        -1.95599
   S       -1.89284        -0.59085        -2.62039
   C        7.22584        -3.28513         2.48630
   C       -4.29925         0.78894        -2.57775
   C       -1.03826         0.60403         1.98564
   C        0.27324         2.30622         0.68823
   C        2.98359        -4.29020        -1.31133
   C        4.41231        -2.50655        -2.35100
   C        7.53566        -2.74214         3.74015
   C        8.66419        -3.13347         4.48795
   C        9.52330        -4.16456         4.06966
   C        9.19716        -4.74840         2.82536
   C        8.09740        -4.30615         2.03634
   C       -4.67266         0.17052        -3.77605
   C       -5.94518         0.34761        -4.35830
   C       -6.91900         1.17137        -3.78763
   C       -6.52933         1.87048        -2.62648
   C       -5.25647         1.67101        -2.02130
   N        9.79162        -5.73719         2.15395
   N        9.09838        -5.86123         1.05695
   N        8.08622        -5.05160         0.92065
   N       -7.17361         2.80111        -1.91107
   N       -6.34570         3.09532        -0.95057
   N       -5.19902         2.47461        -0.94962
   C       10.63452        -4.52925         4.87756
   C       11.61256        -5.44845         4.68869
   C       -8.21327         1.30866        -4.38944
   C       -9.38088         1.47905        -3.72807
   C       -6.66336         4.08264         0.04056
   C        9.43960        -6.83523         0.05897
   C       -9.64701         1.29183        -2.30066
   N      -10.97622         1.58869        -2.02578
   C      -11.77972         1.91446        -3.06740
   S      -10.87433         1.86216        -4.57110
   C       12.65943        -5.60040         5.70662
   N       13.56282        -6.57909         5.33412
   C       13.33460        -7.19635         4.14969
   S       11.88894        -6.56247         3.37238
   C       14.66950        -6.93391         6.20011
   O       12.75216        -4.96475         6.73435
   S       14.26892        -8.36845         3.49836
   C        2.45517        -4.66202        -2.54162
   C        1.84155        -5.88966        -2.70025
   C        1.73453        -6.77689        -1.63696
   C        2.26006        -6.39943        -0.40904
   C        2.87130        -5.16999        -0.24419
   C        4.33531        -1.23106        -2.89035
   C        5.12615        -0.87916        -3.96973
   C        6.01501        -1.78456        -4.53160
   C        6.09830        -3.05627        -3.97820
   C        5.31024        -3.41353        -2.90189
   C       -0.90636        -0.62146         2.62142
   C       -1.59905        -0.88107         3.79068
   C       -2.44777         0.06617         4.34543
   C       -2.58846         1.28619         3.69576
   C       -1.89720         1.55184         2.53030
   C        0.28664         3.09087        -0.45625
   C        0.88934         4.33545        -0.44761
   C        1.50306         4.82417         0.69736
   C        1.49347         4.03250         1.83854
   C        0.89059         2.78932         1.83550
   O       -8.88792         0.87872        -1.45294
   C      -11.48307         1.47724        -0.67231
   S      -13.36194         2.30196        -2.96188
   C       -3.15807        -0.20044         5.64146
   C        2.11797         6.19418         0.71688
   C        6.90361        -1.38296        -5.67381
   C        1.11152        -8.13012        -1.82605
   C        2.16253        -9.14266        -2.28560
   C        8.21555        -0.79603        -5.14911
   C       -6.03138         5.42396        -0.31882
   C        1.08371         7.23905         1.14057
   C       -2.30234         0.25972         6.82350
   C       10.85578        -6.60166        -0.45174
   C       14.32353        -8.13686         7.06875
   C      -12.14245         0.12393        -0.43710
   O        8.92853        -2.53411         5.69669
   C        9.25173        -1.15367         5.64272
   O        6.69572        -1.75810         4.22285
   C        5.98290        -2.09092         5.40346
   O       -6.26968        -0.32539        -5.51722
   C       -6.43257        -1.72580        -5.36652
   O       -3.76140        -0.68758        -4.35684
   C       -3.27931        -0.29976        -5.63257
   H        2.17796         0.16275         1.92359
   H        1.09225        -2.16264        -2.38235
   H        6.23001        -4.15518         0.00432
   H       -3.14978         1.87011        -0.25319
   H       10.72142        -3.97817         5.80868
   H       -8.23994         1.26191        -5.47103
   H       -7.75078         4.16303         0.07645
   H       -6.28145         3.72747         1.00005
   H        9.36891        -7.82937         0.50967
   H        8.70115        -6.73990        -0.73877
   H       15.53425        -7.15479         5.56982
   H       14.86969        -6.05836         6.82217
   H        2.53500        -3.98979        -3.38394
   H        1.43621        -6.16247        -3.66447
   H        2.18631        -7.07412         0.43233
   H        3.26664        -4.89552         0.72291
   H        3.65388        -0.50614        -2.46972
   H        5.04848         0.11717        -4.38174
   H        6.78762        -3.77554        -4.39774
   H        5.38280        -4.40876        -2.48778
   H       -0.25935        -1.37957         2.20507
   H       -1.47991        -1.83940         4.27637
   H       -3.24995         2.03556         4.10743
   H       -2.01570         2.50702         2.03944
   H       -0.17898         2.72985        -1.36158
   H        0.88643         4.93426        -1.34766
   H        1.96790         4.39267         2.74056
   H        0.88952         2.19242         2.73611
   H      -10.62314         1.60062        -0.00993
   H      -12.20228         2.28429        -0.51347
   H       -4.11098         0.33244         5.65827
   H       -3.36217        -1.26855         5.73937
   H        2.95613         6.21380         1.41639
   H        2.49605         6.44471        -0.27640
   H        7.12246        -2.25249        -6.29707
   H        6.39856        -0.63781        -6.29187
   H        0.67101        -8.46998        -0.88658
   H        0.31803        -8.07111        -2.57384
   H        2.95664        -9.22442        -1.54663
   H        1.71316       -10.12346        -2.42293
   H        2.60424        -8.82738        -3.22836
   H        8.74000        -1.52813        -4.53902
   H        8.86070        -0.50497        -5.97492
   H        8.01854         0.08035        -4.53567
   H       -6.41267         5.77626        -1.27412
   H       -6.26652         6.15983         0.44475
   H       -4.95124         5.32065        -0.38742
   H        0.70395         7.01344         2.13463
   H        1.52795         8.23165         1.15506
   H        0.24536         7.24347         0.44737
   H       -2.09788         1.32564         6.74987
   H       -2.81491         0.06813         7.76340
   H       -1.35256        -0.27048         6.83107
   H       11.55764        -6.66005         0.37597
   H       11.11224        -7.36043        -1.18500
   H       10.93797        -5.62203        -0.91632
   H       14.11002        -9.00209         6.44549
   H       15.16275        -8.37201         7.71671
   H       13.45450        -7.91823         7.68506
   H      -11.42641        -0.67689        -0.60621
   H      -12.49854         0.06547         0.58726
   H      -12.98808        -0.00535        -1.10832
   H        8.46590        -0.56475         5.16482
   H        9.37178        -0.83965         6.67778
   H       10.19300        -1.00400         5.10404
   H        5.33003        -2.95196         5.23015
   H        6.65639        -2.31098         6.23402
   H        5.37716        -1.21759         5.63663
   H       -5.53125        -2.19949        -4.97006
   H       -7.27591        -1.94292        -4.70262
   H       -6.64350        -2.10920        -6.36304
   H       -4.08979        -0.20407        -6.35771
   H       -2.73722         0.64902        -5.56824
   H       -2.59557        -1.08827        -5.94053
*
