# ORCA input file
# SCF done       -198.946035123318          0.000587796002
! wb97x-d3 def2-SVP def2/J RIJCOSX Grid4 TightSCF
%maxcore 5000
%tddft
    Mode sTDA
    Ethresh 5.0
    maxcore 5000
end

%pal
  nprocs 6
  end
* xyz 1 2
   C       -0.48636        -3.26208         0.22958
   C       -0.75012        -1.96559         0.71199
   S       -2.46162        -1.59970         0.84409
   C       -2.81018        -3.18656         0.25349
   C       -1.67349        -3.95216        -0.02294
   N       -2.04140        -5.17986        -0.50466
   C       -0.97392        -6.06282        -0.91965
   C       -3.42550        -5.24307        -0.52751
   C       -3.91642        -3.97592        -0.07335
   C       -5.28812        -3.64429        -0.04468
   N       -5.85897        -2.50960         0.32978
   S       -7.45857        -2.65269         0.12437
   N       -7.48135        -4.16624        -0.44770
   C       -6.23561        -4.61158        -0.49760
   C       -5.76287        -5.88063        -0.89413
   C       -4.38446        -6.23784        -0.88843
   N       -4.30658        -7.57713        -1.23748
   C       -3.15111        -8.42058        -1.38823
   C       -2.70573        -8.49265        -2.85083
   C       -5.57314        -8.05433        -1.49729
   C       -6.48474        -7.00829        -1.29319
   S       -8.14393        -7.38714        -1.56965
   C       -7.63760        -9.00109        -1.96660
   C       -6.23777        -9.24114        -1.87668
   C       -0.38495        -6.83512         0.26136
   C       -9.87728       -13.45308        -3.48384
   C       -9.65046       -14.75699        -3.86493
   C      -10.71346       -15.66040        -4.27156
   C      -12.06613       -15.43879        -4.24181
   C      -13.02903       -16.38177        -4.66264
   N      -13.86673       -17.09663        -4.98624
   C      -12.72537       -14.27766        -3.78306
   N      -13.36059       -13.38833        -3.42914
   C      -10.09321       -16.91167        -4.71041
   C      -10.63425       -18.07967        -5.22541
   C       -9.76682       -19.11217        -5.55039
   F      -10.27023       -20.24604        -6.05209
   C       -8.38871       -18.99812        -5.36881
   C       -7.84072       -17.83419        -4.85579
   C       -8.70547       -16.80627        -4.53652
   C       -8.36929       -15.47326        -3.98989
   O       -7.24249       -15.10361        -3.71815
   N       -5.98871       -10.55182        -2.22966
   C       -7.20068       -11.13576        -2.51055
   C       -8.24230       -10.18495        -2.36841
   C       -4.79898       -11.36146        -2.11349
   C       -4.62219       -11.89868        -0.69344
   C       -7.63119       -12.39056        -2.90441
   C       -9.01065       -12.42941        -3.08339
   S       -9.77324       -10.85965        -2.73575
   F       -7.58820       -20.02132        -5.69483
   C        4.35380        -3.30081         0.10766
   O        3.55263        -4.16490        -0.20540
   C        5.82433        -3.40440        -0.00000
   C        6.57775        -4.45842        -0.47573
   C        7.95572        -4.31246        -0.47896
   C        8.54628        -3.13756        -0.01478
   F        9.87899        -3.02283        -0.03071
   C        7.78755        -2.07930         0.46470
   C        6.40876        -2.21716         0.47126
   C        5.34370        -1.30798         0.90133
   C        5.54542        -0.06329         1.44183
   C        4.53696         0.82289         1.87426
   N        3.77829         1.60058         2.24880
   C        6.81746         0.51088         1.65025
   N        7.81948         1.03522         1.84673
   C        4.08223        -1.97556         0.65908
   C        2.83872        -1.43275         0.89962
   F        8.72626        -5.30916        -0.93294
   C        0.38623        -1.22385         0.99342
   C        1.55914        -1.95300         0.71172
   S        1.20345        -3.57269         0.10413
   C        0.33348         0.18976         1.47141
   C        0.46564         1.16525         0.29819
   H       -1.31125        -6.72010        -1.71478
   H       -0.18565        -5.42891        -1.33822
   H       -2.35624        -8.06122        -0.74279
   H       -3.42190        -9.41452        -1.02855
   H       -3.50311        -8.89793        -3.47021
   H       -2.47264        -7.50273        -3.23796
   H       -1.82628        -9.12425        -2.94864
   H       -1.15329        -7.36559         0.82099
   H        0.35114        -7.54920        -0.09641
   H        0.11088        -6.14734         0.94082
   H      -10.91262       -13.13557        -3.50809
   H      -11.68974       -18.22197        -5.38696
   H       -6.77613       -17.73841        -4.71376
   H       -4.91828       -12.19958        -2.80428
   H       -3.92492       -10.79448        -2.43094
   H       -5.46235       -12.53649        -0.43062
   H       -3.70889       -12.48347        -0.62776
   H       -4.57349       -11.08662         0.02987
   H       -7.01611       -13.25585        -3.06582
   H        6.11654        -5.36479        -0.83403
   H        8.29439        -1.19394         0.81127
   H        2.83597        -0.42699         1.29626
   H       -0.63041         0.34876         1.95870
   H        1.12169         0.38914         2.19877
   H       -0.33918         1.00885        -0.41622
   H        0.41557         2.18685         0.66326
   H        1.41583         1.02824        -0.21274
*
