# ORCA input file
# SCF done       -223.741983189000          0.000425723993
! wb97x-d3 def2-SVP def2/J RIJCOSX Grid4 TightSCF
%maxcore 5000
%tddft
    Mode sTDA
    Ethresh 5.0
    maxcore 5000
end

%pal
  nprocs 6
  end
* xyz 1 2
   C       -1.49361        -0.12265        -0.87566
   C       -2.61437         0.66798        -0.94253
   C       -3.83129         0.48615        -0.14510
   C       -4.74070         1.57982        -0.53055
   C       -4.12029         2.37586        -1.50972
   C       -2.79393         1.82539        -1.79489
   O       -4.05797        -0.38959         0.67249
   C       -1.90924         2.33296        -2.71167
   C       -0.63570         1.80577        -3.01001
   C       -2.15652         3.47245        -3.50587
   N        0.41131         1.44394        -3.31554
   N       -2.28678         4.39159        -4.18151
   C       -6.00855         1.85844        -0.06066
   C       -6.67194         2.96101        -0.58140
   C       -6.06787         3.75268        -1.54677
   C       -4.79239         3.47380        -2.02233
   C        0.48776        -9.64281        10.34981
   C       -0.14579       -10.40348        11.29301
   C        0.37456       -10.39411        12.68706
   C       -0.72891       -10.92828        13.51352
   C       -1.78129       -11.34428        12.67729
   C       -1.36927       -11.16791        11.28535
   O        1.45303        -9.98923        13.05679
   C       -1.90869       -11.83269        10.21238
   C       -1.27021       -11.89400         8.95958
   C       -3.10373       -12.57491        10.25487
   N       -0.74943       -12.00488         7.94215
   N       -4.09363       -13.15603        10.21857
   C       -0.81873       -11.02867        14.88768
   C       -1.98687       -11.54424        15.43320
   C       -3.03332       -11.94187        14.61378
   C       -2.94473       -11.85190        13.23046
   C        2.55548        -3.33469         0.50325
   C        0.95519        -5.22072         0.06537
   C        2.98533        -3.35309        -0.81693
   C        4.16707        -2.73028        -1.17154
   C        4.94469        -2.07931        -0.22228
   C        4.50886        -2.07031         1.09607
   C        3.32404        -2.68391         1.45710
   C        0.05645        -5.23927        -0.99144
   C       -0.16630        -6.40932        -1.69441
   C        0.49233        -7.58425        -1.35705
   C        1.39281        -7.55684        -0.29975
   C        1.62568        -6.38982         0.40173
   C        6.25028        -1.44444        -0.60405
   C        7.39211        -2.45463        -0.47359
   C        0.27663        -8.83828        -2.15357
   C        1.20604        -8.86327        -3.36874
   C       -3.89547        -8.50964         7.29543
   C       -2.52610        -9.18734         5.32211
   C       -4.71896        -7.47185         7.70013
   C       -5.86019        -7.74011         8.43562
   C       -6.19200        -9.03947         8.79400
   C       -5.36152       -10.07505         8.38064
   C       -4.22881        -9.81685         7.63420
   C       -1.72945       -10.32214         5.30151
   C       -1.64881       -11.08996         4.15341
   C       -2.34963       -10.74224         3.00712
   C       -3.16016        -9.61433         3.04325
   C       -3.25440        -8.84873         4.18829
   C       -7.44701        -9.33229         9.56403
   C       -8.60422        -9.61939         8.60515
   C       -2.19450       -11.53114         1.73929
   C       -1.07512       -10.93777         0.88074
   C       -1.21831        -1.23663        -0.07387
   S       -2.27252        -1.97895         1.11432
   C       -1.05646        -3.13820         1.48668
   C        0.10905        -2.96916         0.73050
   C        0.01276        -1.90254        -0.13662
   C       -1.05589        -4.12631         2.49204
   C        0.17057        -4.67934         2.86237
   O        1.33306        -4.36843         2.27347
   C        1.23200        -3.96496         0.88782
   S       -2.38842        -4.70236         3.45509
   C       -1.29703        -5.67239         4.38169
   C        0.03107        -5.53903         3.95771
   C       -1.44379        -6.58236         5.43414
   C       -0.20898        -7.09888         5.83330
   S        1.12456        -6.50537         4.88540
   O       -2.60339        -6.90507         6.03202
   C       -2.61411        -8.26099         6.53392
   C       -1.41078        -8.44044         7.42797
   C       -0.19361        -7.93053         6.97354
   C       -1.30257        -9.09254         8.64278
   C       -0.00155        -9.13565         9.13282
   S        1.09500        -8.29772         8.04889
   H       -0.66893         0.14104        -1.52675
   H       -6.45789         1.22768         0.69090
   H       -7.66464         3.20486        -0.23411
   H       -6.59747         4.60681        -1.94140
   H       -4.35022         4.10863        -2.77232
   H        1.47775        -9.30322        10.63897
   H        0.00475       -10.71213        15.50903
   H       -2.08392       -11.63509        16.50457
   H       -3.93720       -12.33177        15.05737
   H       -3.77229       -12.16214        12.61261
   H        2.39465        -3.85602        -1.56857
   H        4.48841        -2.74781        -2.20291
   H        5.09984        -1.56969         1.84957
   H        2.99426        -2.66634         2.48437
   H       -0.47129        -4.34005        -1.27391
   H       -0.86912        -6.40859        -2.51530
   H        1.91770        -8.45941        -0.02200
   H        2.32845        -6.37793         1.22195
   H        6.20101        -1.08766        -1.63447
   H        6.45030        -0.58978         0.04506
   H        7.21524        -3.31076        -1.12076
   H        8.33825        -1.99704        -0.75265
   H        7.46679        -2.81102         0.55133
   H        0.47615        -9.71122        -1.52988
   H       -0.75996        -8.88813        -2.49317
   H        2.24526        -8.82852        -3.04980
   H        1.05006        -9.77030        -3.94785
   H        1.01635        -8.00504        -4.00933
   H       -4.46546        -6.45744         7.43470
   H       -6.49786        -6.92337         8.74265
   H       -5.60009       -11.09409         8.64941
   H       -3.59876       -10.63307         7.31058
   H       -1.17241       -10.62205         6.17650
   H       -1.02396       -11.97087         4.15406
   H       -3.72408        -9.33180         2.16579
   H       -3.88712        -7.97301         4.20645
   H       -7.29034       -10.20076        10.20678
   H       -7.70425        -8.47888        10.19470
   H       -8.37087       -10.47755         7.97930
   H       -9.51479        -9.83086         9.16070
   H       -8.78139        -8.76265         7.95880
   H       -1.95584       -12.56977         1.97513
   H       -3.12867       -11.51344         1.17437
   H       -0.13230       -10.96027         1.42304
   H       -0.96232       -11.50693        -0.03934
   H       -1.29778        -9.90330         0.62666
   H        0.79594        -1.59636        -0.80785
   H       -2.14948        -9.47965         9.17838
*
